####################################################################### 
# 
# This file contains crystal structure data downloaded from the 
# Cambridge Structural Database (CSD) hosted by the Cambridge 
# Crystallographic Data Centre (CCDC).
# 
# Full information about CCDC data access policies and citation 
# guidelines are available at http://www.ccdc.cam.ac.uk/access/V1 
# 
# Audit and citation data items may have been added by the CCDC. 
# Please retain this information to preserve the provenance of 
# this file and to allow appropriate attribution of the data. 
# 
#######################################################################

data_T2-alpha_NMP_240k
_audit_block_doi                 10.5517/ccdc.csd.cc1lmbxg
_database_code_depnum_ccdc_archive 'CCDC 1478356'
loop_
_citation_id
_citation_doi
_citation_year
1 10.1038/nature21419 2017
_audit_update_record             
;
2016-05-05 deposited with the CCDC.	2020-03-17 downloaded from the CCDC.
;
_audit_creation_date             2016-02-08
_audit_creation_method           
;
Olex2 1.2-beta
(compiled 2015.11.10 svn.r3248 for OlexSys, GUI svn.r5133)
;
_chemical_name_common            T2
_chemical_name_systematic        T2
_chemical_formula_moiety         'C23 H14 N6 O3, 2.75(C5 H9 N O)'
_chemical_formula_sum            'C36.75 H38.75 N8.75 O5.75'
_chemical_formula_weight         695.01
_chemical_melting_point          ?
loop_
_atom_type_symbol
_atom_type_description
_atom_type_scat_dispersion_real
_atom_type_scat_dispersion_imag
_atom_type_scat_source
C C 0.0040 0.0020 'International Tables Vol C Tables 4.2.6.8 and 6.1.1.4'
H H 0.0000 0.0000 'International Tables Vol C Tables 4.2.6.8 and 6.1.1.4'
N N 0.0080 0.0040 'International Tables Vol C Tables 4.2.6.8 and 6.1.1.4'
O O 0.0130 0.0070 'International Tables Vol C Tables 4.2.6.8 and 6.1.1.4'

_shelx_space_group_comment       
;
The symmetry employed for this shelxl refinement is uniquely defined
by the following loop, which should always be used as a source of
symmetry information in preference to the above space-group names.
They are only intended as comments.
;
_space_group_crystal_system      tetragonal
_space_group_IT_number           84
_space_group_name_H-M_alt        'P 42/m'
_space_group_name_Hall           '-P 4c'
loop_
_space_group_symop_operation_xyz
'x, y, z'
'-x, -y, z'
'-y, x, z+1/2'
'y, -x, z+1/2'
'-x, -y, -z'
'x, y, -z'
'y, -x, -z-1/2'
'-y, x, -z-1/2'

_cell_length_a                   22.3249(11)
_cell_length_b                   22.3249(11)
_cell_length_c                   7.3336(5)
_cell_angle_alpha                90
_cell_angle_beta                 90
_cell_angle_gamma                90
_cell_volume                     3655.1(4)
_cell_formula_units_Z            4
_cell_measurement_reflns_used    2182
_cell_measurement_temperature    240(2)
_cell_measurement_theta_max      25.46
_cell_measurement_theta_min      2.98
_shelx_estimated_absorpt_T_max   ?
_shelx_estimated_absorpt_T_min   ?
_exptl_absorpt_coefficient_mu    0.106
_exptl_absorpt_correction_T_max  0.9281
_exptl_absorpt_correction_T_min  0.7746
_exptl_absorpt_correction_type   multi-scan
_exptl_absorpt_process_details   
;
SADABS-2014/5 (Bruker,2014/5) was used for absorption correction.
wR2(int) was 0.1167 before and 0.0455 after correction.
The Ratio of minimum to maximum transmission is 0.8346.
The \l/2 correction factor is Not present.
;
_exptl_absorpt_special_details   ?
_exptl_crystal_colour            colourless
_exptl_crystal_colour_primary    colourless
_exptl_crystal_density_diffrn    1.263
_exptl_crystal_density_meas      ?
_exptl_crystal_density_method    ?
_exptl_crystal_description       plate
_exptl_crystal_F_000             1466
_exptl_crystal_preparation       ?
_exptl_crystal_size_max          0.1
_exptl_crystal_size_mid          0.05
_exptl_crystal_size_min          0.04
_exptl_transmission_factor_max   ?
_exptl_transmission_factor_min   ?
_diffrn_reflns_av_R_equivalents  0.0832
_diffrn_reflns_av_unetI/netI     0.1186
_diffrn_reflns_Laue_measured_fraction_full 0.968
_diffrn_reflns_Laue_measured_fraction_max 0.961
_diffrn_reflns_limit_h_max       15
_diffrn_reflns_limit_h_min       -20
_diffrn_reflns_limit_k_max       22
_diffrn_reflns_limit_k_min       -14
_diffrn_reflns_limit_l_max       3
_diffrn_reflns_limit_l_min       -7
_diffrn_reflns_number            4626
_diffrn_reflns_point_group_measured_fraction_full 0.968
_diffrn_reflns_point_group_measured_fraction_max 0.961
_diffrn_reflns_theta_full        20.800
_diffrn_reflns_theta_max         22.788
_diffrn_reflns_theta_min         2.224
_diffrn_ambient_temperature      240(2)
_diffrn_detector_area_resol_mean '100 x 100 mm2'
_diffrn_detector_type            'PHOTON 100 CMOS detector'
_diffrn_measured_fraction_theta_full 0.968
_diffrn_measured_fraction_theta_max 0.961
_diffrn_measurement_device       'KAPPA four-circle diffractometer'
_diffrn_measurement_device_type  'Bruker D8 diffractometer'
_diffrn_measurement_method       'omega rotation'
_diffrn_radiation_type           synchrotron
_diffrn_radiation_collimation    '0.2 mm single-pinhole'
_diffrn_radiation_monochromator  'Silicon 111'
_diffrn_radiation_probe          x-ray
_diffrn_radiation_wavelength     0.7749
_diffrn_source                   synchrotron
_diffrn_source_type              'Bend magnet, Station 11.3.1, ALS, LBNL'
_reflns_Friedel_coverage         0.000
_reflns_Friedel_fraction_full    .
_reflns_Friedel_fraction_max     .
_reflns_number_gt                1144
_reflns_number_total             2036
_reflns_special_details          
;
 Reflections were merged by SHELXL according to the crystal
 class for the calculation of statistics and refinement.
 
 _reflns_Friedel_fraction is defined as the number of unique
 Friedel pairs measured divided by the number that would be
 possible theoretically, ignoring centric projections and
 systematic absences.
;
_reflns_threshold_expression     'I > 2\s(I)'
_computing_cell_refinement       'SAINT v8.34A (Bruker, 2013)'
_computing_data_collection       'SAINT v8.34A (Bruker, 2013)'
_computing_data_reduction        'SAINT v8.34A (Bruker, 2013)'
_computing_molecular_graphics    'Olex2 (Dolomanov et al., 2009)'
_computing_publication_material  'Olex2 (Dolomanov et al., 2009)'
_computing_structure_refinement  'ShelXL (Sheldrick, 2015)'
_computing_structure_solution    'ShelXT (Sheldrick, 2015)'
_refine_diff_density_max         0.288
_refine_diff_density_min         -0.232
_refine_diff_density_rms         0.061
_refine_ls_extinction_coef       .
_refine_ls_extinction_method     none
_refine_ls_goodness_of_fit_ref   1.020
_refine_ls_hydrogen_treatment    constr
_refine_ls_matrix_type           full
_refine_ls_number_parameters     215
_refine_ls_number_reflns         2036
_refine_ls_number_restraints     166
_refine_ls_R_factor_all          0.1363
_refine_ls_R_factor_gt           0.0874
_refine_ls_restrained_S_all      0.998
_refine_ls_shift/su_max          0.000
_refine_ls_shift/su_mean         0.000
_refine_ls_structure_factor_coef Fsqd
_refine_ls_weighting_details     
'w=1/[\s^2^(Fo^2^)+(0.1490P)^2^] where P=(Fo^2^+2Fc^2^)/3'
_refine_ls_weighting_scheme      calc
_refine_ls_wR_factor_gt          0.2421
_refine_ls_wR_factor_ref         0.2616
_refine_special_details          SQUEEZE
_olex2_refinement_description    
;
1. Fixed Uiso
 At 1.2 times of:
  All C(H) groups, All C(H,H) groups, All N(H) groups
 At 1.5 times of:
  All C(H,H,H) groups
2. Restrained distances
 N2S-C3S
 1.44 with sigma of 0.01
 N2S-C6S
 1.35 with sigma of 0.01
 C4S-C3S = C5S-C4S = C6S-C5S
 1.52 with sigma of 0.01
 N2S-C1S
 1.43 with sigma of 0.01
 O7S-C6S
 1.21 with sigma of 0.01
 N2S-C4S
 2.31 with sigma of 0.02
 C3S-C5S
 2.42 with sigma of 0.02
 C6S-C4S
 2.41 with sigma of 0.02
3. Rigid body (RIGU) restrains
 C1S, N2S, C6S, O7S, C5S, C4S, C3S
 with sigma for 1-2 distances of 0.004 and sigma for 1-3 distances of 0.004
 O2, C9, N2, C8, C7, C6, C5, C10, C4, C11, C3, C12, C2, N3, N1, C13, C1, O3, O1
 with sigma for 1-2 distances of 0.004 and sigma for 1-3 distances of 0.004
4. Others
 Fixed Sof: N2S(0.5) C6S(0.5) C5S(0.5) H5SA(0.5) H5SB(0.5) C4S(0.5) H4SB(0.5)
 H4SA(0.5) C3S(0.5) H3SA(0.5) H3SB(0.5) C1S(0.5) H1SA(0.5) H1SB(0.5) H1SC(0.5)
5.a Ternary CH refined with riding coordinates:
 C5(H5)
5.b Secondary CH2 refined with riding coordinates:
 C5S(H5SA,H5SB), C4S(H4SB,H4SA), C3S(H3SA,H3SB)
5.c Aromatic/amide H refined with riding coordinates:
 N2(H2), N1(H1), N3(H3), C7(H7), C11(H11), C3(H3A)
5.d Idealised Me refined as rotating group:
 C1S(H1SA,H1SB,H1SC)
;
_atom_sites_solution_hydrogens   geom
_atom_sites_solution_primary     ?
_atom_sites_solution_secondary   ?
loop_
_atom_site_label
_atom_site_type_symbol
_atom_site_fract_x
_atom_site_fract_y
_atom_site_fract_z
_atom_site_U_iso_or_equiv
_atom_site_adp_type
_atom_site_occupancy
_atom_site_site_symmetry_order
_atom_site_calc_flag
_atom_site_refinement_flags_posn
_atom_site_refinement_flags_adp
_atom_site_refinement_flags_occupancy
_atom_site_disorder_assembly
_atom_site_disorder_group
O2 O 0.4349(3) 0.4705(3) 0.5000 0.0389(16) Uani 1 2 d S TU P . .
O1 O 0.9758(3) 0.3557(4) 0.5000 0.067(2) Uani 1 2 d S TU P . .
N2 N 0.5002(2) 0.4039(2) 0.6476(6) 0.0392(14) Uani 1 1 d . U . . .
H2 H 0.4907 0.4110 0.7607 0.047 Uiso 1 1 calc R . . . .
O3 O 0.6505(4) -0.0640(3) 0.5000 0.064(2) Uani 1 2 d S TU P . .
N1 N 0.8877(2) 0.3298(3) 0.6483(6) 0.0527(17) Uani 1 1 d . U . . .
H1 H 0.8997 0.3331 0.7607 0.063 Uiso 1 1 calc R . . . .
N3 N 0.6513(3) 0.0282(2) 0.6498(7) 0.0532(17) Uani 1 1 d . U . . .
H3 H 0.6505 0.0159 0.7624 0.064 Uiso 1 1 calc R . . . .
C6 C 0.6232(3) 0.2950(3) 0.5953(7) 0.0355(16) Uani 1 1 d . U . . .
C8 C 0.5433(3) 0.3647(3) 0.5924(8) 0.0381(16) Uani 1 1 d . U . . .
C10 C 0.6632(3) 0.1930(3) 0.5950(8) 0.0389(16) Uani 1 1 d . U . . .
C5 C 0.6719(3) 0.2546(3) 0.6757(8) 0.0393(16) Uani 1 1 d . U . . .
H5 H 0.6715 0.2543 0.8107 0.047 Uiso 1 1 calc R . . . .
C9 C 0.4738(4) 0.4305(4) 0.5000 0.039(2) Uani 1 2 d S TU P . .
C4 C 0.7306(3) 0.2770(3) 0.5986(8) 0.0386(16) Uani 1 1 d . U . . .
C7 C 0.5840(3) 0.3300(3) 0.6921(8) 0.0413(17) Uani 1 1 d . U . . .
H7 H 0.5844 0.3306 0.8202 0.050 Uiso 1 1 calc R . . . .
C12 C 0.6537(3) 0.0881(3) 0.5946(8) 0.0409(17) Uani 1 1 d . U . . .
C1 C 0.9215(5) 0.3408(5) 0.5000 0.047(2) Uani 1 2 d S TU P . .
C11 C 0.6586(3) 0.1402(3) 0.6909(8) 0.0420(17) Uani 1 1 d . U . . .
H11 H 0.6588 0.1401 0.8190 0.050 Uiso 1 1 calc R . . . .
C2 C 0.8304(3) 0.3123(3) 0.5937(8) 0.0502(19) Uani 1 1 d . U . . .
C3 C 0.7802(3) 0.2948(3) 0.6962(8) 0.0437(17) Uani 1 1 d . U . . .
H3A H 0.7804 0.2952 0.8244 0.052 Uiso 1 1 calc R . . . .
C13 C 0.6505(5) -0.0078(5) 0.5000 0.050(3) Uani 1 2 d S TU P . .
O7S O 0.6952(6) 0.3853(6) 1.0000 0.157(4) Uani 1 2 d DS TU P . .
N2S N 0.7431(6) 0.4458(6) 0.7566(18) 0.093(4) Uani 0.5 1 d D U . . .
C6S C 0.7293(8) 0.4185(8) 0.915(2) 0.109(6) Uani 0.5 1 d D U . . .
C5S C 0.7764(9) 0.4405(8) 1.045(2) 0.112(6) Uani 0.5 1 d D U . . .
H5SA H 0.7986 0.4066 1.0966 0.134 Uiso 0.5 1 calc R . . . .
H5SB H 0.7577 0.4626 1.1459 0.134 Uiso 0.5 1 calc R . . . .
C4S C 0.8187(8) 0.4814(10) 0.940(2) 0.142(8) Uani 0.5 1 d D U . . .
H4SB H 0.8203 0.5211 0.9970 0.170 Uiso 0.5 2 calc R . . . .
H4SA H 0.8592 0.4645 0.9383 0.170 Uiso 0.5 1 calc R . . . .
C3S C 0.7938(7) 0.4858(8) 0.748(2) 0.110(6) Uani 0.5 1 d D U . . .
H3SA H 0.7813 0.5268 0.7186 0.132 Uiso 0.5 1 calc R . . . .
H3SB H 0.8231 0.4723 0.6570 0.132 Uiso 0.5 1 calc R . . . .
C1S C 0.7074(8) 0.4404(9) 0.595(2) 0.115(7) Uani 0.5 1 d D U . . .
H1SA H 0.7328 0.4294 0.4935 0.173 Uiso 0.5 2 calc GR . . . .
H1SB H 0.6881 0.4784 0.5700 0.173 Uiso 0.5 1 calc GR . . . .
H1SC H 0.6772 0.4098 0.6136 0.173 Uiso 0.5 1 calc GR . . . .

loop_
_atom_site_aniso_label
_atom_site_aniso_U_11
_atom_site_aniso_U_22
_atom_site_aniso_U_33
_atom_site_aniso_U_23
_atom_site_aniso_U_13
_atom_site_aniso_U_12
O2 0.039(4) 0.044(4) 0.034(3) 0.000 0.000 0.000(3)
O1 0.047(4) 0.112(7) 0.043(4) 0.000 0.000 -0.009(4)
N2 0.044(3) 0.048(3) 0.026(2) -0.001(2) 0.001(2) 0.004(3)
O3 0.116(7) 0.036(4) 0.041(4) 0.000 0.000 0.003(4)
N1 0.044(3) 0.084(4) 0.030(3) 0.000(3) -0.002(2) -0.004(3)
N3 0.088(5) 0.041(3) 0.031(3) 0.002(2) 0.002(3) 0.007(3)
C6 0.035(3) 0.040(4) 0.032(3) 0.002(3) 0.008(3) -0.002(3)
C8 0.044(4) 0.040(4) 0.030(3) 0.004(3) 0.004(3) -0.006(3)
C10 0.038(4) 0.042(3) 0.037(3) -0.004(3) -0.006(3) 0.005(3)
C5 0.042(3) 0.048(4) 0.028(3) 0.006(3) 0.001(3) 0.004(3)
C9 0.037(5) 0.047(5) 0.034(4) 0.000 0.000 -0.011(4)
C4 0.038(3) 0.040(4) 0.038(3) 0.003(3) -0.001(3) 0.008(3)
C7 0.048(4) 0.048(4) 0.029(3) -0.005(3) -0.002(3) -0.001(3)
C12 0.049(4) 0.038(3) 0.036(3) -0.006(3) 0.000(3) 0.007(3)
C1 0.044(5) 0.054(7) 0.043(5) 0.000 0.000 0.001(5)
C11 0.042(4) 0.050(3) 0.034(3) -0.002(3) -0.007(3) 0.014(3)
C2 0.047(4) 0.070(5) 0.034(3) 0.000(3) -0.009(3) -0.009(3)
C3 0.047(4) 0.056(5) 0.028(3) -0.001(3) 0.001(3) 0.000(3)
C13 0.068(8) 0.040(4) 0.043(5) 0.000 0.000 0.006(5)
O7S 0.145(10) 0.114(9) 0.212(11) 0.000 0.000 -0.020(7)
N2S 0.077(9) 0.065(9) 0.137(8) -0.024(7) -0.002(6) 0.012(7)
C6S 0.115(12) 0.077(12) 0.135(9) -0.023(7) -0.005(7) 0.001(8)
C5S 0.127(12) 0.064(10) 0.144(11) -0.017(8) -0.017(8) 0.006(8)
C4S 0.144(12) 0.123(15) 0.158(13) 0.001(10) -0.032(9) -0.013(11)
C3S 0.087(10) 0.091(12) 0.152(11) 0.001(9) -0.015(8) 0.004(9)
C1S 0.089(12) 0.129(17) 0.128(10) -0.002(9) 0.005(8) -0.024(12)

_geom_special_details            
;
 All esds (except the esd in the dihedral angle between two l.s. planes)
 are estimated using the full covariance matrix.  The cell esds are taken
 into account individually in the estimation of esds in distances, angles
 and torsion angles; correlations between esds in cell parameters are only
 used when they are defined by crystal symmetry.  An approximate (isotropic)
 treatment of cell esds is used for estimating esds involving l.s. planes.
;
loop_
_geom_bond_atom_site_label_1
_geom_bond_atom_site_label_2
_geom_bond_distance
_geom_bond_site_symmetry_2
_geom_bond_publ_flag
O2 C9 1.245(10) . ?
O1 C1 1.256(11) . ?
N2 H2 0.8700 . ?
N2 C8 1.363(7) . ?
N2 C9 1.368(8) . ?
O3 C13 1.254(11) . ?
N1 H1 0.8700 . ?
N1 C1 1.346(8) . ?
N1 C2 1.397(8) . ?
N3 H3 0.8700 . ?
N3 C12 1.397(8) . ?
N3 C13 1.362(7) . ?
C6 C6 1.397(11) 6_556 ?
C6 C5 1.530(8) . ?
C6 C7 1.371(8) . ?
C8 C8 1.355(11) 6_556 ?
C8 C7 1.400(8) . ?
C10 C10 1.394(12) 6_556 ?
C10 C5 1.511(8) . ?
C10 C11 1.375(8) . ?
C5 H5 0.9900 . ?
C5 C4 1.512(8) . ?
C9 N2 1.368(8) 6_556 ?
C4 C4 1.446(12) 6_556 ?
C4 C3 1.377(8) . ?
C7 H7 0.9400 . ?
C12 C12 1.388(11) 6_556 ?
C12 C11 1.366(8) . ?
C1 N1 1.346(8) 6_556 ?
C11 H11 0.9400 . ?
C2 C2 1.375(12) 6_556 ?
C2 C3 1.405(9) . ?
C3 H3A 0.9400 . ?
C13 N3 1.362(7) 6_556 ?
O7S C6S 1.231(9) . ?
O7S C6S 1.231(9) 6_557 ?
N2S C6S 1.347(9) . ?
N2S C3S 1.443(9) . ?
N2S C1S 1.430(9) . ?
C6S C5S 1.505(9) . ?
C5S H5SA 0.9800 . ?
C5S H5SB 0.9800 . ?
C5S C4S 1.523(9) . ?
C4S H4SB 0.9800 . ?
C4S H4SA 0.9800 . ?
C4S C3S 1.522(9) . ?
C3S C5S 1.86(2) 6_557 ?
C3S H3SA 0.9800 . ?
C3S H3SB 0.9800 . ?
C1S H1SA 0.9700 . ?
C1S H1SB 0.9700 . ?
C1S H1SC 0.9700 . ?

loop_
_geom_angle_atom_site_label_1
_geom_angle_atom_site_label_2
_geom_angle_atom_site_label_3
_geom_angle
_geom_angle_site_symmetry_1
_geom_angle_site_symmetry_3
_geom_angle_publ_flag
C8 N2 H2 124.8 . . ?
C8 N2 C9 110.4(5) . . ?
C9 N2 H2 124.8 . . ?
C1 N1 H1 125.3 . . ?
C1 N1 C2 109.4(6) . . ?
C2 N1 H1 125.3 . . ?
C12 N3 H3 125.3 . . ?
C13 N3 H3 125.3 . . ?
C13 N3 C12 109.4(5) . . ?
C6 C6 C5 112.7(3) 6_556 . ?
C7 C6 C6 121.2(3) . 6_556 ?
C7 C6 C5 126.1(5) . . ?
N2 C8 C7 131.2(5) . . ?
C8 C8 N2 107.3(3) 6_556 . ?
C8 C8 C7 121.5(3) 6_556 . ?
C10 C10 C5 113.0(3) 6_556 . ?
C11 C10 C10 120.7(4) . 6_556 ?
C11 C10 C5 126.1(5) . . ?
C6 C5 H5 112.6 . . ?
C10 C5 C6 107.1(5) . . ?
C10 C5 H5 112.6 . . ?
C10 C5 C4 105.4(5) . . ?
C4 C5 C6 106.1(5) . . ?
C4 C5 H5 112.6 . . ?
O2 C9 N2 127.7(4) . 6_556 ?
O2 C9 N2 127.7(4) . . ?
N2 C9 N2 104.6(8) . 6_556 ?
C4 C4 C5 112.0(3) 6_556 . ?
C3 C4 C5 126.7(5) . . ?
C3 C4 C4 121.3(4) . 6_556 ?
C6 C7 C8 117.3(5) . . ?
C6 C7 H7 121.3 . . ?
C8 C7 H7 121.3 . . ?
C12 C12 N3 106.8(3) 6_556 . ?
C11 C12 N3 132.0(6) . . ?
C11 C12 C12 121.1(4) . 6_556 ?
O1 C1 N1 126.1(4) . 6_556 ?
O1 C1 N1 126.1(4) . . ?
N1 C1 N1 107.8(8) 6_556 . ?
C10 C11 H11 120.9 . . ?
C12 C11 C10 118.2(5) . . ?
C12 C11 H11 120.9 . . ?
N1 C2 C3 131.0(6) . . ?
C2 C2 N1 106.7(3) 6_556 . ?
C2 C2 C3 122.3(4) 6_556 . ?
C4 C3 C2 116.3(5) . . ?
C4 C3 H3A 121.8 . . ?
C2 C3 H3A 121.8 . . ?
O3 C13 N3 126.2(4) . 6_556 ?
O3 C13 N3 126.2(4) . . ?
N3 C13 N3 107.5(8) . 6_556 ?
C6S O7S C6S 60.8(17) 6_557 . ?
C6S N2S C3S 120.0(11) . . ?
C6S N2S C1S 123.2(14) . . ?
C1S N2S C3S 116.8(14) . . ?
O7S C6S N2S 148.2(15) . . ?
O7S C6S C5S 107.9(14) . . ?
N2S C6S C5S 103.9(11) . . ?
C6S C5S H5SA 110.1 . . ?
C6S C5S H5SB 110.1 . . ?
C6S C5S C4S 107.9(9) . . ?
H5SA C5S H5SB 108.4 . . ?
C4S C5S H5SA 110.1 . . ?
C4S C5S H5SB 110.1 . . ?
C5S C4S H4SB 110.4 . . ?
C5S C4S H4SA 110.4 . . ?
H4SB C4S H4SA 108.6 . . ?
C3S C4S C5S 106.4(9) . . ?
C3S C4S H4SB 110.4 . . ?
C3S C4S H4SA 110.4 . . ?
N2S C3S C5S 57.6(7) . 6_557 ?
N2S C3S C4S 101.7(9) . . ?
N2S C3S H3SA 111.4 . . ?
N2S C3S H3SB 111.4 . . ?
C5S C3S H3SA 128.6 6_557 . ?
C5S C3S H3SB 121.6 6_557 . ?
C4S C3S C5S 44.4(6) . 6_557 ?
C4S C3S H3SA 111.4 . . ?
C4S C3S H3SB 111.4 . . ?
H3SA C3S H3SB 109.3 . . ?
N2S C1S H1SA 109.5 . . ?
N2S C1S H1SB 109.5 . . ?
N2S C1S H1SC 109.5 . . ?
H1SA C1S H1SB 109.5 . . ?
H1SA C1S H1SC 109.5 . . ?
H1SB C1S H1SC 109.5 . . ?

loop_
_geom_torsion_atom_site_label_1
_geom_torsion_atom_site_label_2
_geom_torsion_atom_site_label_3
_geom_torsion_atom_site_label_4
_geom_torsion
_geom_torsion_site_symmetry_1
_geom_torsion_site_symmetry_2
_geom_torsion_site_symmetry_3
_geom_torsion_site_symmetry_4
_geom_torsion_publ_flag
N2 C8 C7 C6 -179.0(6) . . . . ?
N1 C2 C3 C4 -176.5(7) . . . . ?
N3 C12 C11 C10 176.4(7) . . . . ?
C6 C6 C5 C10 -55.1(5) 6_556 . . . ?
C6 C6 C5 C4 57.1(5) 6_556 . . . ?
C6 C6 C7 C8 1.2(7) 6_556 . . . ?
C6 C5 C4 C4 -56.7(4) . . . 6_556 ?
C6 C5 C4 C3 124.4(7) . . . . ?
C8 N2 C9 O2 -176.2(8) . . . . ?
C8 N2 C9 N2 3.0(9) . . . 6_556 ?
C8 C8 C7 C6 -1.2(7) 6_556 . . . ?
C10 C10 C5 C6 55.3(5) 6_556 . . . ?
C10 C10 C5 C4 -57.4(5) 6_556 . . . ?
C10 C10 C11 C12 -0.4(8) 6_556 . . . ?
C10 C5 C4 C4 56.7(5) . . . 6_556 ?
C10 C5 C4 C3 -122.2(7) . . . . ?
C5 C6 C7 C8 178.8(6) . . . . ?
C5 C10 C11 C12 -176.9(6) . . . . ?
C5 C4 C3 C2 178.3(6) . . . . ?
C9 N2 C8 C8 -1.9(5) . . . 6_556 ?
C9 N2 C8 C7 176.1(7) . . . . ?
C4 C4 C3 C2 -0.5(8) 6_556 . . . ?
C7 C6 C5 C10 127.2(6) . . . . ?
C7 C6 C5 C4 -120.6(6) . . . . ?
C12 N3 C13 O3 177.4(10) . . . . ?
C12 N3 C13 N3 -0.9(11) . . . 6_556 ?
C12 C12 C11 C10 0.4(8) 6_556 . . . ?
C1 N1 C2 C2 0.7(7) . . . 6_556 ?
C1 N1 C2 C3 178.1(8) . . . . ?
C11 C10 C5 C6 -127.9(7) . . . . ?
C11 C10 C5 C4 119.3(7) . . . . ?
C2 N1 C1 O1 -177.8(9) . . . . ?
C2 N1 C1 N1 -1.1(11) . . . 6_556 ?
C2 C2 C3 C4 0.5(8) 6_556 . . . ?
C13 N3 C12 C12 0.6(7) . . . 6_556 ?
C13 N3 C12 C11 -175.8(8) . . . . ?
O7S C6S C5S C4S 179.8(16) . . . . ?
N2S C6S C5S C4S -2(2) . . . . ?
C6S O7S C6S N2S -162(3) 6_557 . . . ?
C6S O7S C6S C5S 15(2) 6_557 . . . ?
C6S N2S C3S C5S 6.3(16) . . . 6_557 ?
C6S N2S C3S C4S 2(2) . . . . ?
C6S C5S C4S C3S 3(2) . . . . ?
C5S C4S C3S N2S -3(2) . . . . ?
C5S C4S C3S C5S -7.9(6) . . . 6_557 ?
C3S N2S C6S O7S 177(3) . . . . ?
C3S N2S C6S C5S 0(2) . . . . ?
C1S N2S C6S O7S 1(5) . . . . ?
C1S N2S C6S C5S -176.2(16) . . . . ?
C1S N2S C3S C5S -177.6(17) . . . 6_557 ?
C1S N2S C3S C4S 178.3(17) . . . . ?

#==============================================================================
# start Validation Reply Form
#==============================================================================
_CHEMW03_ALERT_2_A               
;
Problem:  The ratio of given/expected molecular weight as
 calculated from the _atom_site* data lies outside
 the range 0.90 <> 1.10
Response: It was not possible to resolve solvent positions in the larger 
lattice voids. SQUEEZE was therefore used during the final refinement cycles.
SQUEEZE removed 663 electron from a 2121 Ang^3 void and as a result 8 DMSO
molecules were included in the refined chemical formula moiety.
;
_PLAT043_ALERT_1_A               
;
Problem:  Calculated and Reported Mol. Weight Differ by .. 625.10 Check 
Response: It was not possible to resolve solvent positions in the large 
lattice voids. SQUEEZE was therefore used during the final refinement cycles. 
SQUEEZE removed 663 electron from a 2121 Ang^3 void and as a result 8 DMSO 
molecules were included in the refined chemical formula moiety.
;
_PLAT051_ALERT_1_A               
;
Problem:   Mu(calc) and Mu(CIF) Ratio Differs from 1.0 by . 77.91 % 
Response: It was not possible to resolve solvent positions in the large 
lattice voids. SQUEEZE was therefore used during the final refinement 
cycles. SQUEEZE removed 663 electron from a 2121 Ang^3 void and as a 
result 8 DMSO molecules were included in the refined chemical formula moiety.
;
_PLAT602_ALERT_2_A               
;
Problem:   VERY LARGE Solvent Accessible VOID(S) in Structure ! Info 
Response: It was not possible to resolve solvent positions in the large 
lattice voids and therefore SQUEEZE was therefore used during the final 
refinement crystals.
;
_PLAT049_ALERT_1_B               
;
Problem:  Calculated Density less than 1.0 gcm-3 ......... 0.5154 Check
Response: Taking into account the disordered solvent, that could not 
be modelled, the density is ~ 1.1 g/cm^3
;
#==============================================================================
# end Validation Reply Form
#==============================================================================

_shelx_res_file                  
;
    ttbi_nmp_acetone_240k.res created by SHELXL-2014/7

TITL ttbi_nmp_acetone_240k_a.res in P4(2)/m
REM Old TITL TTBI_NMP_Acetone_240K in P42/m #84
REM SHELXT solution in P4(2)/m
REM R1 0.263, Rweak 0.031, Alpha 0.065, Orientation as input
REM Formula found by SHELXT: C29 N6 O5
CELL 0.7749 22.3249 22.3249 7.3336 90 90 90
ZERR 4 0.0011 0.0011 0.0005 0 0 0
LATT 1
SYMM -X,-Y,+Z
SYMM -Y,+X,0.5+Z
SYMM +Y,-X,0.5+Z
SFAC C H N O
DISP C 0.004 0.002 13.6
DISP H -0 0 0.67
DISP N 0.008 0.004 23.92
DISP O 0.013 0.007 40.17
UNIT 147 155 35 23
EQIV $1 +X,+Y,2-Z
EQIV $2 +X,+Y,1-Z
DFIX 1.44 0.01 N2S C3S
DFIX 1.35 0.01 N2S C6S
DFIX 1.52 0.01 C4S C3S C5S C4S C6S C5S
DFIX 1.43 0.01 N2S C1S
DFIX 1.21 0.01 O7S C6S
DANG 2.31 0.02 N2S C4S
DANG 2.42 0.02 C3S C5S
DANG 2.41 0.02 C6S C4S
RIGU C1S N2S C6S O7S C5S C4S C3S
RIGU O2 C9 N2 C8 C7 C6 C5 C10 C4 C11 C3 C12 C2 N3 N1 C13 C1 O3 O1

L.S. 10
PLAN  20
TEMP -33(2)
FREE C1S C1S_$2
FREE N2S C5S_$1
FREE C6S C6S_$1
FREE C6S C5S_$1
FREE C5S C5S_$1
FREE C5S C3S_$1
FREE C5S C4S_$1
FREE C5S C6S_$1
FREE C5S N2S_$1
FREE C4S C4S_$1
FREE C4S H5Sa_$1
FREE C4S C5S_$1
FREE C3S H5Sa_$1
BOND $H
LIST 6
MORE -1
CONF
fmap 2
acta 41.6
OMIT -2 3 1
OMIT 2 4 1
OMIT 1 5 0
REM <olex2.extras>
REM <HklSrc "%.\\ttbi_nmp_acetone_240k_sqd.hkl">
REM </olex2.extras>

WGHT    0.149000
FVAR       4.46237
O2    4    0.434894    0.470541    0.500000    10.50000    0.03915    0.04378 =
         0.03370    0.00000    0.00000    0.00038
O1    4    0.975767    0.355705    0.500000    10.50000    0.04679    0.11206 =
         0.04301    0.00000    0.00000   -0.00904
N2    3    0.500160    0.403907    0.647577    11.00000    0.04372    0.04756 =
         0.02628   -0.00145    0.00095    0.00366
AFIX  43
H2    2    0.490745    0.410999    0.760652    11.00000   -1.20000
AFIX   0
O3    4    0.650461   -0.064010    0.500000    10.50000    0.11559    0.03563 =
         0.04085    0.00000    0.00000    0.00271
N1    3    0.887727    0.329804    0.648316    11.00000    0.04371    0.08419 =
         0.03019    0.00021   -0.00221   -0.00355
AFIX  43
H1    2    0.899744    0.333065    0.760729    11.00000   -1.20000
AFIX   0
N3    3    0.651321    0.028206    0.649850    11.00000    0.08799    0.04094 =
         0.03075    0.00243    0.00216    0.00661
AFIX  43
H3    2    0.650514    0.015884    0.762369    11.00000   -1.20000
AFIX   0
C6    1    0.623190    0.294982    0.595271    11.00000    0.03454    0.03977 =
         0.03220    0.00236    0.00802   -0.00189
C8    1    0.543304    0.364711    0.592359    11.00000    0.04354    0.04035 =
         0.03045    0.00420    0.00403   -0.00582
C10   1    0.663189    0.192965    0.595041    11.00000    0.03800    0.04170 =
         0.03713   -0.00391   -0.00613    0.00506
C5    1    0.671888    0.254635    0.675708    11.00000    0.04212    0.04788 =
         0.02778    0.00560    0.00102    0.00431
AFIX  13
H5    2    0.671508    0.254310    0.810694    11.00000   -1.20000
AFIX   0
C9    1    0.473750    0.430521    0.500000    10.50000    0.03704    0.04661 =
         0.03364    0.00000    0.00000   -0.01052
C4    1    0.730619    0.276968    0.598600    11.00000    0.03838    0.03971 =
         0.03768    0.00316   -0.00146    0.00848
C7    1    0.583974    0.329983    0.692051    11.00000    0.04755    0.04766 =
         0.02873   -0.00510   -0.00162   -0.00136
AFIX  43
H7    2    0.584385    0.330629    0.820207    11.00000   -1.20000
AFIX   0
C12   1    0.653679    0.088052    0.594635    11.00000    0.04895    0.03827 =
         0.03554   -0.00602   -0.00038    0.00712
C1    1    0.921512    0.340809    0.500000    10.50000    0.04400    0.05409 =
         0.04253    0.00000    0.00000    0.00052
C11   1    0.658593    0.140218    0.690867    11.00000    0.04157    0.04993 =
         0.03439   -0.00196   -0.00683    0.01364
AFIX  43
H11   2    0.658827    0.140060    0.819041    11.00000   -1.20000
AFIX   0
C2    1    0.830393    0.312339    0.593728    11.00000    0.04684    0.06976 =
         0.03394   -0.00014   -0.00866   -0.00861
C3    1    0.780175    0.294812    0.696250    11.00000    0.04676    0.05624 =
         0.02807   -0.00075    0.00113    0.00019
AFIX  43
H3A   2    0.780409    0.295249    0.824418    11.00000   -1.20000
AFIX   0
C13   1    0.650483   -0.007845    0.500000    10.50000    0.06813    0.03951 =
         0.04340    0.00000    0.00000    0.00632

O7S   4    0.695219    0.385309    1.000000    10.50000    0.14537    0.11395 =
         0.21225    0.00000    0.00000   -0.02049
N2S   3    0.743098    0.445789    0.756646    10.50000    0.07731    0.06527 =
         0.13745   -0.02371   -0.00151    0.01205
C6S   1    0.729284    0.418492    0.915035    10.50000    0.11539    0.07666 =
         0.13531   -0.02290   -0.00481    0.00089
C5S   1    0.776414    0.440511    1.045476    10.50000    0.12729    0.06370 =
         0.14433   -0.01694   -0.01684    0.00608
AFIX  23
H5SA  2    0.798595    0.406564    1.096648    10.50000   -1.20000
H5SB  2    0.757697    0.462587    1.145949    10.50000   -1.20000
AFIX   0
C4S   1    0.818703    0.481382    0.940190    10.50000    0.14380    0.12301 =
         0.15827    0.00149   -0.03179   -0.01269
AFIX  23
H4SB  2    0.820315    0.521088    0.996966    10.50000   -1.20000
H4SA  2    0.859227    0.464519    0.938305    10.50000   -1.20000
AFIX   0
C3S   1    0.793794    0.485807    0.747526    10.50000    0.08688    0.09110 =
         0.15232    0.00142   -0.01505    0.00425
AFIX  23
H3SA  2    0.781317    0.526809    0.718635    10.50000   -1.20000
H3SB  2    0.823123    0.472331    0.656954    10.50000   -1.20000
AFIX   0
C1S   1    0.707435    0.440407    0.595482    10.50000    0.08939    0.12896 =
         0.12782   -0.00245    0.00473   -0.02406
AFIX 137
H1SA  2    0.732812    0.429375    0.493507    10.50000   -1.50000
H1SB  2    0.688109    0.478411    0.570002    10.50000   -1.50000
H1SC  2    0.677193    0.409783    0.613627    10.50000   -1.50000
AFIX   0
HKLF 4

REM  ttbi_nmp_acetone_240k_a.res in P4(2)/m
REM R1 =  0.0874 for    1144 Fo > 4sig(Fo)  and  0.1363 for all    2036 data
REM    215 parameters refined using    166 restraints

END

WGHT      0.1492      0.0000

REM Highest difference peak  0.288,  deepest hole -0.232,  1-sigma level  0.061
Q1    1   0.7911  0.5601  0.5000  10.50000  0.05    0.29
Q2    1   0.7024  0.4828  1.0000  10.50000  0.05    0.27
Q3    1   0.8618  0.5124  0.9138  11.00000  0.05    0.25
Q4    1   0.6059  0.3799  1.0000  10.50000  0.05    0.24
Q5    1   0.8011  0.2709  0.8686  11.00000  0.05    0.22
Q6    1   0.5873  0.1060  0.5000  10.50000  0.05    0.20
Q7    1   0.6542  0.1934  1.0000  10.50000  0.05    0.20
Q8    1   0.7546  0.4449  1.0943  11.00000  0.05    0.19
Q9    1   0.7957  0.4045  1.0000  10.50000  0.05    0.19
Q10   1   0.6398  0.3419  1.0000  10.50000  0.05    0.19
Q11   1   0.6717  0.2999  1.0000  10.50000  0.05    0.18
Q12   1   0.5295  0.3115  0.5000  10.50000  0.05    0.18
Q13   1   0.7803  0.4151  1.1911  11.00000  0.05    0.18
Q14   1   0.7434  0.5858  0.6540  11.00000  0.05    0.17
Q15   1   0.8313  0.0815  0.5000  10.50000  0.05    0.16
Q16   1   0.6383  0.3643  0.5000  10.50000  0.05    0.15
Q17   1   0.7593  0.2913  1.0000  10.50000  0.05    0.15
Q18   1   0.7423  0.5425  0.5000  10.50000  0.05    0.15
Q19   1   0.6098  0.2201  0.8044  11.00000  0.05    0.15
Q20   1   0.8780  0.4685  0.7359  11.00000  0.05    0.14
;
_shelx_res_checksum              87960
_shelx_hkl_file                  
;
   2   1   0    7612    3060                                                       33117  -22.14    0.00  1.0000
  -1   2   0    8651    3590                                                       35246  -22.14    0.00  1.0000
  -2  -1   0    5343    2250                                                       28167  -22.14    0.00  1.0000
   1   2   0   68681    3640                                                       61354    3.36    0.00  1.0000
   2   2   0     408    3770                                                       62574   53.75    0.00  1.0000
   3   2   0   24265    3080                                                       10929  -11.98    0.00  1.0000
  -2   3   0   27170    2320                                                       12909  -11.97    0.00  1.0000
  -2   3   0   21154    3690                                                        8879  -11.97    0.00  1.0000
  -3  -2   0   26023    2890                                                       12119  -11.98    0.00  1.0000
   3   2   0   14784    1630                                                        4950  -11.98    0.00  1.0000
  -3  -2   0   20461    1660                                                        8429  -11.98    0.00  1.0000
   2  -3   0   15937    2500                                                        5629  -11.97    0.00  1.0000
  -1   3   0  450876     700                                                        8339 -135.61    0.00  1.0000
   0   3   0  552427    5549                                                       93591 -102.23    0.00  1.0000
   1   3   0  304236     610                                                        7349 -108.89    0.00  1.0000
   2   3   0   22626    1070                                                       14399   -7.11    0.00  1.0000
   3   3   0    3120    1220                                                       12699  -13.29    0.00  1.0000
  -3   4   0  110153    5159                                                       58574   21.01    0.00  1.0000
   4   3   0   93630    4520                                                       46705   21.01    0.00  1.0000
  -4  -3   0  124461    5879                                                       69123   21.01    0.00  1.0000
   4   3   0  115182    6499                                                       62254   21.01    0.00  1.0000
   3  -4   0  119921    5029                                                       65753   21.01    0.00  1.0000
  -3   4   0   99578    6199                                                       50935   21.01    0.00  1.0000
  -4  -3   0   95228    4550                                                       47835   21.01    0.00  1.0000
   3  -4   0  101490    6539                                                       52305   21.01    0.00  1.0000
  -4  -2   0   14792    3350                                                        5519   45.80    0.00  1.0000
   2  -4   0   27150    3780                                                         970   45.80    0.00  1.0000
  -4  -2   0   38382    1440                                                         -70   45.80    0.00  1.0000
  -2   4   0   38383    4570                                                         -60   45.80    0.00  1.0000
   4   2   0   12026    3620                                                        7439   45.80    0.00  1.0000
   4   2   0   38382    1690                                                       -1740   45.80    0.00  1.0000
  -1   4   0  242492   16898                                                      286001   -9.90    0.00  1.0000
   0   4   0   23772     660                                                        7609   15.65    0.00  1.0000
   1   4   0  253749    9449                                                      159724   24.33    0.00  1.0000
   2   4   0  155408     560                                                        4620   76.26    0.00  1.0000
   3   4   0   35511    9419                                                      158374   48.98    0.00  1.0000
  -4   4   0   42321    2610                                                        4210   32.92    0.00  1.0000
  -4  -4   0   30217    2410                                                        1090   32.92    0.00  1.0000
   4  -4   0   50880    2420                                                        7179   32.92    0.00  1.0000
   4   4   0   47217    4410                                                        5849   32.92    0.00  1.0000
   4  -4   0   19835    4410                                                       -2630   32.92    0.00  1.0000
  -4  -4   0   19829    3940                                                         -20   32.92    0.00  1.0000
   4   4   0   33491    2450                                                        1780   32.92    0.00  1.0000
  -4   4   0   31727    4640                                                        1390   32.92    0.00  1.0000
   5   4   0  105031    5979                                                       72913  -12.64    0.00  1.0000
  -5  -4   0  103517    5819                                                       71653  -12.64    0.00  1.0000
  -4   5   0  106605    6279                                                       74223  -12.64    0.00  1.0000
   4  -5   0  111554    6129                                                       78362  -12.64    0.00  1.0000
   5   4   0  125678    7839                                                       90271  -12.64    0.00  1.0000
   4  -5   0  100270    8279                                                       68953  -12.64    0.00  1.0000
  -5  -4   0  117383    7099                                                       83262  -12.64    0.00  1.0000
  -4   5   0  109703    8379                                                       76812  -12.64    0.00  1.0000
   5   3   0  384672   19218                                                      311139  -14.59    0.00  1.0000
   3  -5   0  378569   20418                                                      305619  -14.60    0.00  1.0000
  -3   5   0  396163   20528                                                      321448  -14.60    0.00  1.0000
  -5  -3   0  379455   19118                                                      306449  -14.59    0.00  1.0000
  -5  -3   0  414804   19928                                                      338296  -14.59    0.00  1.0000
   5   3   0  436045   20108                                                      357504  -14.59    0.00  1.0000
   3  -5   0  379181   19538                                                      306169  -14.60    0.00  1.0000
  -3   5   0  373816   19538                                                      301350  -14.60    0.00  1.0000
  -2   5   0    6124     740                                                        3400    4.66    0.00  1.0000
  -1   5   0  160434   10769                                                      181482   -5.95    0.00  1.0000
   0   5   0  144889    8209                                                      138256    2.06    0.00  1.0000
   1   5   0   15727    1010                                                       13109   -2.55    0.00  1.0000
   2   5   0  258814   15238                                                      257804   -0.23    0.00  1.0000
   3   5   0  159247   13509                                                      228017  -18.34    0.00  1.0000
   4   5   0  264952   11319                                                      190101  -18.40    0.00  1.0000
   5  -5   0  418895   34767                                                      570613  -25.28    0.00  1.0000
  -5   5   0  410411   33807                                                      560704  -25.28    0.00  1.0000
  -5  -5   0  413729   33757                                                      564554  -25.28    0.00  1.0000
   5   5   0  445639   34637                                                      601730  -25.28    0.00  1.0000
   5   5   0  391150   33757                                                      538126  -25.28    0.00  1.0000
  -5  -5   0  429491   34357                                                      582942  -25.28    0.00  1.0000
  -5   5   0  434086   34627                                                      588321  -25.28    0.00  1.0000
   5  -5   0  360786   33697                                                      502430  -25.28    0.00  1.0000
   6   5   0  186793   11069                                                      165823   -5.84    0.00  1.0000
   5  -6   0  191761   12889                                                      170493   -5.84    0.00  1.0000
   5  -6   0  178395   11119                                                      157904   -5.84    0.00  1.0000
  -6  -5   0  195384   12079                                                      173923   -5.84    0.00  1.0000
  -5   6   0  194794   12899                                                      173353   -5.84    0.00  1.0000
  -6  -5   0  190008   10929                                                      168853   -5.84    0.00  1.0000
  -5   6   0  194942   11439                                                      173493   -5.84    0.00  1.0000
   6   5   0  200077   12669                                                      178352   -5.84    0.00  1.0000
   4  -6   0  135788   11469                                                      140196   -1.39    0.00  1.0000
  -6  -4   0  132401   10459                                                      136776   -1.39    0.00  1.0000
  -4   6   0  128606    9699                                                      132897   -1.39    0.00  1.0000
   4  -6   0  142825    9739                                                      147345   -1.39    0.00  1.0000
  -4   6   0  136260   11339                                                      140676   -1.39    0.00  1.0000
   6   4   0  154541   10899                                                      159264   -1.39    0.00  1.0000
  -6  -4   0  137676    9059                                                      142136   -1.39    0.00  1.0000
   6   4   0  124189    9169                                                      128427   -1.39    0.00  1.0000
  -3   6   0  192124    9159                                                      153385   10.91    0.00  1.0000
  -2   6   0  195893   18178                                                      307089   26.08    0.00  1.0000
  -1   6   0  649678   58974                                                      999900   45.33    0.00  1.0000
   0   6   0  235679   29507                                                      499910   51.79    0.00  1.0000
   1   6   0   27386    8449                                                      142356   49.51    0.00  1.0000
   2   6   0     144    1260                                                       17348   27.98    0.00  1.0000
   3   6   0   10446    1660                                                       23378   11.85    0.00  1.0000
   4   6   0   98012    4780                                                       78122    7.85    0.00  1.0000
   5   6   0  169076   10939                                                      183152    3.92    0.00  1.0000
  -6   6   0   54108    6619                                                       47055    3.67    0.00  1.0000
  -6   6   0   51555    5259                                                       44676    3.67    0.00  1.0000
   6   6   0   44034    4950                                                       37696    3.67    0.00  1.0000
  -6  -6   0   48672    5449                                                       41996    3.67    0.00  1.0000
   6   6   0   51748    5919                                                       44856    3.67    0.00  1.0000
  -6  -6   0   46571    5009                                                       40046    3.67    0.00  1.0000
   6  -6   0   44489    4790                                                       38116    3.67    0.00  1.0000
   6  -6   0   56540    6509                                                       49325    3.67    0.00  1.0000
  -7  -6   0   24443    3210                                                       22208   -1.71    0.00  1.0000
  -6   7   0   26015    3790                                                       23718   -1.70    0.00  1.0000
   7   6   0   20437    5379                                                       18398   -1.71    0.00  1.0000
   6  -7   0   26759    3680                                                       24428   -1.70    0.00  1.0000
   6  -7   0   19616    6199                                                       17628   -1.70    0.00  1.0000
   7   6   0   22532    3360                                                       20388   -1.71    0.00  1.0000
  -6   7   0   16307    6019                                                       14499   -1.70    0.00  1.0000
  -7  -6   0   18611    4880                                                       16668   -1.71    0.00  1.0000
   5  -7   0   19352    3480                                                       21218   -1.53    0.00  1.0000
  -5   7   0   20948    3650                                                       22888   -1.53    0.00  1.0000
   5  -7   0    3098    5659                                                        3870   -1.53    0.00  1.0000
   7   5   0   11077    4970                                                       12499   -1.53    0.00  1.0000
   7   5   0   14051    3050                                                       15648   -1.53    0.00  1.0000
  -7  -5   0   14231    2750                                                       15838   -1.53    0.00  1.0000
  -7  -5   0    8797    4550                                                       10069   -1.53    0.00  1.0000
  -5   7   0    9068    5249                                                       10359   -1.53    0.00  1.0000
  -4   7   0   19149    1030                                                        8439  -10.87    0.00  1.0000
  -3   7   0    3956    1110                                                       11229  -10.07    0.00  1.0000
  -2   7   0  157090   14109                                                      237846  -21.35    0.00  1.0000
  -1   7   0  233671   17368                                                      293591  -13.66    0.00  1.0000
   0   7   0   27980    4080                                                       67163  -21.48    0.00  1.0000
   1   7   0   85216    8149                                                      137076  -18.31    0.00  1.0000
   2   7   0  130640   14389                                                      243346  -30.82    0.00  1.0000
   3   7   0    4494     620                                                        1510  -24.75    0.00  1.0000
   4   7   0   13491     830                                                        4360  -11.72    0.00  1.0000
   5   7   0   10969    1100                                                        7939    3.65    0.00  1.0000
  -6  -7   0     298    4560                                                        2550    7.77    0.00  1.0000
  -6  -7   0    1104    2980                                                        -710    7.77    0.00  1.0000
   6   7   0     167    2960                                                        2130    7.77    0.00  1.0000
  -7   6   0     374    2810                                                        2760    7.76    0.00  1.0000
   6   7   0     302    5259                                                        2560    7.77    0.00  1.0000
   7  -6   0      19    5189                                                         830    7.76    0.00  1.0000
  -7   6   0      72    5139                                                         610    7.76    0.00  1.0000
   7  -6   0     173    2650                                                        2150    7.76    0.00  1.0000
  -7   7   0   49309    5549                                                       44316    2.70    0.00  1.0000
   7   7   0   48066    6709                                                       43136    2.70    0.00  1.0000
   7   7   0   43637    5179                                                       38946    2.70    0.00  1.0000
  -7   7   0   48022    6509                                                       43096    2.70    0.00  1.0000
   7  -7   0   48803    5239                                                       43836    2.70    0.00  1.0000
  -7  -7   0   32871    5699                                                       28817    2.70    0.00  1.0000
   7  -7   0   46649    7089                                                       41796    2.70    0.00  1.0000
  -7  -7   0   46387    5249                                                       41546    2.70    0.00  1.0000
  -7   8   0   38605    5609                                                       40546    1.14    0.00  1.0000
  -7   8   0   42022    6769                                                       44046    1.14    0.00  1.0000
   8   7   0   38229    6679                                                       40166    1.14    0.00  1.0000
   7  -8   0   29818    7119                                                       31527    1.14    0.00  1.0000
  -8  -7   0   29464    5669                                                       31167    1.14    0.00  1.0000
  -8  -7   0   33336    4820                                                       35146    1.14    0.00  1.0000
   7  -8   0   35435    5279                                                       37296    1.14    0.00  1.0000
   8   7   0   32480    5059                                                       34267    1.14    0.00  1.0000
   8   6   0    4224    5209                                                        2860    2.69    0.00  1.0000
  -6   8   0    2639    3280                                                        1590    2.69    0.00  1.0000
  -8  -6   0    2050    2390                                                        1140    2.69    0.00  1.0000
  -8  -6   0    2511    4510                                                        1490    2.69    0.00  1.0000
   6  -8   0    2548    5929                                                        1520    2.69    0.00  1.0000
   8   6   0    5836    2850                                                        4210    2.69    0.00  1.0000
   6  -8   0    9429    3210                                                        7329    2.69    0.00  1.0000
  -6   8   0    1554    5719                                                         780    2.69    0.00  1.0000
   5  -8   0    2212    6109                                                       10699   13.19    0.00  1.0000
  -8  -5   0    2788    4730                                                       11929   13.19    0.00  1.0000
  -8  -5   0    2885    2520                                                       12129   13.19    0.00  1.0000
   8   5   0    3968    5179                                                       14259   13.19    0.00  1.0000
   5  -8   0    5234    3580                                                       16578   13.19    0.00  1.0000
   8   5   0    3619    3050                                                       13589   13.19    0.00  1.0000
  -5   8   0    2198    6079                                                       10669   13.19    0.00  1.0000
  -5   8   0    5347    3530                                                       16778   13.19    0.00  1.0000
  -4   8   0    5332     900                                                        2450    5.50    0.00  1.0000
  -3   8   0  165937   11919                                                      200070    9.34    0.00  1.0000
  -2   8   0    9418     950                                                        8209   -1.51    0.00  1.0000
  -1   8   0   56831    2760                                                       43376    7.04    0.00  1.0000
   0   8   0   14605    1180                                                       13989    0.60    0.00  1.0000
   1   8   0   74961    6319                                                      105759   12.02    0.00  1.0000
   2   8   0   13348    1690                                                       25227   10.12    0.00  1.0000
   3   8   0    1688     960                                                       11369   15.32    0.00  1.0000
   4   8   0    2816    1160                                                       13539   14.79    0.00  1.0000
   5   8   0   16421     960                                                        3500   16.12    0.00  1.0000
  -6  -8   0   11101    3980                                                       23818   11.45    0.00  1.0000
  -8   6   0    8854    5449                                                       20468   11.45    0.00  1.0000
   8  -6   0    9496    4150                                                       21438   11.45    0.00  1.0000
  -8   6   0   10768    3680                                                       23328   11.45    0.00  1.0000
  -6  -8   0    6727    5309                                                       17158   11.45    0.00  1.0000
   8  -6   0   13451    6449                                                       27207   11.45    0.00  1.0000
   6   8   0    9151    3740                                                       20918   11.45    0.00  1.0000
   6   8   0    8032    6079                                                       19208   11.45    0.00  1.0000
  -8   7   0   41679    5409                                                       43486    1.02    0.00  1.0000
   7   8   0   31264    6889                                                       32827    1.02    0.00  1.0000
   8  -7   0   36777    7339                                                       38476    1.02    0.00  1.0000
   7   8   0   43318    5709                                                       45155    1.02    0.00  1.0000
  -7  -8   0   36928    5979                                                       38626    1.02    0.00  1.0000
  -7  -8   0   38904    5669                                                       40646    1.02    0.00  1.0000
  -8   7   0   39536    6449                                                       41296    1.02    0.00  1.0000
   8  -7   0   42306    5159                                                       44126    1.02    0.00  1.0000
  -8  -8   0   46181    6129                                                       54775   -4.47    0.00  1.0000
   8  -8   0   48398    6169                                                       57174   -4.47    0.00  1.0000
  -8   8   0   56037    6509                                                       65453   -4.47    0.00  1.0000
   8   8   0   51334    6379                                                       60374   -4.47    0.00  1.0000
   9   8   0   30197    4110                                                       24458   -4.06    0.00  1.0000
   8  -9   0   33348    4270                                                       27297   -4.07    0.00  1.0000
  -9  -8   0   28271    3630                                                       22728   -4.06    0.00  1.0000
  -8   9   0   33868    4290                                                       27767   -4.07    0.00  1.0000
  -9  -7   0   41407    4670                                                       39566    1.07    0.00  1.0000
   7  -9   0   40478    5889                                                       38656    1.07    0.00  1.0000
  -7   9   0   44538    5909                                                       42626    1.07    0.00  1.0000
   9   7   0   39514    5299                                                       37716    1.07    0.00  1.0000
  -6   9   0    1060     930                                                        1330    0.91    0.00  1.0000
  -5   9   0      48     910                                                        1570    7.64    0.00  1.0000
  -4   9   0   30724    2680                                                       39666   -5.58    0.00  1.0000
  -3   9   0    7851    1380                                                       13379   -6.33    0.00  1.0000
  -2   9   0   49272    1720                                                       22368  -16.93    0.00  1.0000
  -1   9   0   97414    4150                                                       67573  -12.19    0.00  1.0000
   0   9   0   73441    2220                                                       33967  -20.27    0.00  1.0000
   1   9   0   34477    1350                                                       18278  -11.80    0.00  1.0000
   2   9   0    4107     940                                                        9109   -7.33    0.00  1.0000
   3   9   0    4942     780                                                        6659   -2.64    0.00  1.0000
   4   9   0    3409     740                                                        1410   -4.87    0.00  1.0000
   5   9   0    3076     980                                                        5809   -4.85    0.00  1.0000
   6   9   0    2003    1040                                                        2200   -0.50    0.00  1.0000
   7   9   0   15699    3790                                                       14809   -0.84    0.00  1.0000
  -9   7   0   11763    3360                                                       10989   -0.85    0.00  1.0000
   9  -7   0   11017    3010                                                       10269   -0.85    0.00  1.0000
  -7  -9   0   15955    3850                                                       15058   -0.84    0.00  1.0000
   8   9   0    6564    3740                                                        6819   -0.36    0.00  1.0000
  -8  -9   0    8391    3500                                                        8679   -0.36    0.00  1.0000
   9  -8   0   10044    3330                                                       10359   -0.36    0.00  1.0000
  -9   8   0    8136    3550                                                        8419   -0.36    0.00  1.0000
  -9  -9   0   14901    3620                                                       15638    0.70    0.00  1.0000
   9   9   0   16043    4010                                                       16808    0.70    0.00  1.0000
   9  -9   0   17242    3830                                                       18028    0.69    0.00  1.0000
  -9   9   0   14497    3870                                                       15218    0.69    0.00  1.0000
  10   9   0    3066    3400                                                         960    5.70    0.00  1.0000
  -9  10   0    3278    3900                                                        1080    5.70    0.00  1.0000
 -10  -9   0     595    2910                                                       -1640    5.70    0.00  1.0000
   9 -10   0    4402    3490                                                        1760    5.70    0.00  1.0000
  -8  10   0      83    3450                                                         370    2.36    0.00  1.0000
   8 -10   0    1229    3530                                                        2040    2.36    0.00  1.0000
 -10  -8   0     456    2670                                                         990    2.36    0.00  1.0000
  10   8   0    2993    3350                                                        4200    2.36    0.00  1.0000
  -7  10   0    3722    1010                                                        1960    3.91    0.00  1.0000
  -6  10   0   25440    2210                                                       24758   -0.50    0.00  1.0000
  -5  10   0    2341    1040                                                        5719    6.37    0.00  1.0000
  -4  10   0    3104     890                                                        2370    1.64    0.00  1.0000
  -3  10   0   33727    1640                                                       18668   10.99    0.00  1.0000
  -2  10   0   10343     730                                                        2220   12.76    0.00  1.0000
  -1  10   0   60141    1780                                                       24788   20.52    0.00  1.0000
   0  10   0    8458     610                                                         850   14.68    0.00  1.0000
   1  10   0  130152    5209                                                       86561   15.56    0.00  1.0000
   2  10   0   27059     750                                                        6969   18.94    0.00  1.0000
   3  10   0   11370    2240                                                       34097   18.24    0.00  1.0000
   4  10   0    4807     750                                                         490   11.03    0.00  1.0000
   5  10   0    1720     900                                                        1990    0.73    0.00  1.0000
   6  10   0     941    1050                                                         980    0.15    0.00  1.0000
  10  -7   0   34421    4810                                                       33257    0.74    0.00  1.0000
  -7 -10   0   35056    6189                                                       33877    0.74    0.00  1.0000
   7  10   0   40179    6079                                                       38916    0.74    0.00  1.0000
 -10   7   0   39453    5309                                                       38206    0.74    0.00  1.0000
 -10   8   0   13014    3620                                                       15498    2.43    0.00  1.0000
  10  -8   0   10297    3450                                                       12519    2.43    0.00  1.0000
  -8 -10   0    8775    3770                                                       10829    2.43    0.00  1.0000
   8  10   0   13074    3910                                                       15558    2.43    0.00  1.0000
  10  -9   0   32230    5599                                                       29497    1.82    0.00  1.0000
 -10   9   0   37385    5859                                                       34437    1.82    0.00  1.0000
   9  10   0   36283    4860                                                       33387    1.81    0.00  1.0000
  -9 -10   0   46223    5829                                                       42946    1.81    0.00  1.0000
 -10 -10   0   18796    3800                                                       19828    0.87    0.00  1.0000
  10  10   0   11170    4740                                                       11969    0.87    0.00  1.0000
  10 -10   0   16093    4060                                                       17048    0.87    0.00  1.0000
 -10  11   0   20933    4540                                                       21268   -0.27    0.00  1.0000
 -11  -9   0    1829    3000                                                        4530    5.74    0.00  1.0000
  -9  11   0     603    3630                                                        -500    5.74    0.00  1.0000
  11   9   0     848    3570                                                        2880    5.74    0.00  1.0000
   9 -11   0     246    3650                                                        1620    5.74    0.00  1.0000
  -8  11   0     439    1060                                                          80    2.81    0.00  1.0000
  -7  11   0     651    1060                                                        1620    3.44    0.00  1.0000
  -6  11   0   22876    2270                                                       29067   -4.50    0.00  1.0000
  -5  11   0    1208     940                                                         770   -1.64    0.00  1.0000
  -4  11   0   31856    1820                                                       22188   -6.90    0.00  1.0000
  -3  11   0   63863    3950                                                       62634   -0.57    0.00  1.0000
  -2  11   0   10651    1050                                                       10499    0.17    0.00  1.0000
  -1  11   0    7927     820                                                        5829    2.96    0.00  1.0000
   0  11   0    4513     660                                                        2540   -3.92    0.00  1.0000
   1  11   0   25953    1060                                                       12779  -11.23    0.00  1.0000
   2  11   0    7485     610                                                        1680  -10.64    0.00  1.0000
   3  11   0   21251    1050                                                       11919   -8.56    0.00  1.0000
   4  11   0     646     750                                                        -550   -5.94    0.00  1.0000
   5  11   0   20596    2300                                                       32447   -8.56    0.00  1.0000
   6  11   0   22348    1510                                                       15768   -5.59    0.00  1.0000
   7  11   0    2010    3530                                                        2040    0.08    0.00  1.0000
  11  -7   0    4873    2810                                                        4920    0.08    0.00  1.0000
 -11   7   0    2685    3060                                                        2720    0.08    0.00  1.0000
  -7 -11   0    3004    3970                                                        3040    0.08    0.00  1.0000
 -11   8   0    3170    3360                                                        1950    2.84    0.00  1.0000
  -8 -11   0    6656    3840                                                        4820    2.84    0.00  1.0000
   8  11   0    3476    3690                                                        2190    2.84    0.00  1.0000
  11  -8   0    1113    3140                                                         450    2.84    0.00  1.0000
 -11   9   0   24584    4310                                                       26217    1.20    0.00  1.0000
  -9 -11   0   26892    4610                                                       28597    1.20    0.00  1.0000
   9  11   0   23791    4560                                                       25397    1.20    0.00  1.0000
  11  -9   0   22282    4210                                                       23838    1.20    0.00  1.0000
 -11  10   0   19790    5349                                                       26947   -5.49    0.00  1.0000
 -10  12   0    8660    1370                                                        7299   -1.78    0.00  1.0000
  -9  12   0     727    1120                                                         160    3.34    0.00  1.0000
  -8  12   0     172    1200                                                         310    1.05    0.00  1.0000
  -7  12   0    1281    1080                                                        2720    3.83    0.00  1.0000
  -6  12   0    1975    1000                                                         960   -3.15    0.00  1.0000
  -5  12   0   26547    2810                                                       29007   -1.73    0.00  1.0000
  -4  12   0   13937    1750                                                       19988   -5.45    0.00  1.0000
  -3  12   0     675     770                                                         410    1.34    0.00  1.0000
  -2  12   0   37301    3070                                                       47765    5.94    0.00  1.0000
  -1  12   0    7913    1530                                                       19518   11.86    0.00  1.0000
   0  12   0   28641    2870                                                       45415   10.25    0.00  1.0000
   1  12   0    9185    1020                                                       11779    2.97    0.00  1.0000
   2  12   0    5906     740                                                        5379    0.82    0.00  1.0000
   3  12   0   14897    1020                                                       10899    4.13    0.00  1.0000
   4  12   0    1510     770                                                         -50    9.08    0.00  1.0000
   5  12   0    3280    1050                                                        7619    7.02    0.00  1.0000
   6  12   0    2044    1050                                                        1450    1.67    0.00  1.0000
   7  12   0     632    3690                                                        1150    2.05    0.00  1.0000
  12  -7   0    1348    2880                                                        2070    2.05    0.00  1.0000
  -7 -12   0      77    4070                                                        -960    2.05    0.00  1.0000
 -12   7   0      33    2910                                                         210    2.05    0.00  1.0000
  12  -8   0    4872    3290                                                        3630    2.23    0.00  1.0000
   8  12   0    4513    3780                                                        3320    2.23    0.00  1.0000
 -12   8   0    7973    3380                                                        6359    2.23    0.00  1.0000
  -8 -12   0    9933    4930                                                        8119    2.23    0.00  1.0000
 -12  13   0   16921    1820                                                       15118    1.67    0.00  1.0000
 -11  13   0      20    1320                                                         -10   -1.03    0.00  1.0000
 -10  13   0    1051    1250                                                        1670   -1.98    0.00  1.0000
  -9  13   0    7694    1420                                                        8349    0.86    0.00  1.0000
  -8  13   0    2999    1170                                                        3730   -1.48    0.00  1.0000
  -7  13   0      15    1060                                                         250    2.78    0.00  1.0000
  -6  13   0     648    1010                                                         590   -0.27    0.00  1.0000
  -5  13   0   35391    2620                                                       36226    0.52    0.00  1.0000
  -4  13   0   12421    1680                                                       18618   -5.84    0.00  1.0000
  -3  13   0   14300    1790                                                       22358   -7.00    0.00  1.0000
  -2  13   0    8821    1540                                                       18278   -9.65    0.00  1.0000
  -1  13   0       1     710                                                        1140   -7.70    0.00  1.0000
   0  13   0   68283    5419                                                       89571   -8.88    0.00  1.0000
   1  13   0   19874    2360                                                       36226  -11.54    0.00  1.0000
   2  13   0    8634    1600                                                       21988  -12.94    0.00  1.0000
   3  13   0    6872     760                                                        2930   -6.72    0.00  1.0000
   4  13   0    2689     840                                                        2220   -1.11    0.00  1.0000
   5  13   0    4313     980                                                        4290    0.04    0.00  1.0000
   6  13   0     139    1060                                                         350   -7.13    0.00  1.0000
 -13   7   0    1577    3160                                                        5419   -7.93    0.00  1.0000
  13  -7   0    1480    3110                                                        5239   -7.93    0.00  1.0000
  -7 -13   0    1224    4390                                                        4750   -7.93    0.00  1.0000
 -13  13   0    7159    1580                                                        6689   -0.66    0.00  1.0000
 -13  14   0      53    1470                                                        -790   -1.71    0.00  1.0000
 -12  14   0    4875    1550                                                        6229   -2.13    0.00  1.0000
 -11  14   0    6947    1500                                                        5019   -2.92    0.00  1.0000
 -10  14   0     160    1330                                                        -110   -2.96    0.00  1.0000
  -9  14   0   20866    1800                                                       18478    1.99    0.00  1.0000
  -8  14   0    7151    1370                                                        8459    1.73    0.00  1.0000
  -7  14   0    2661    1110                                                        1040    4.52    0.00  1.0000
  -6  14   0    7362    1140                                                        4740    3.96    0.00  1.0000
  -5  14   0     923     990                                                        3150    6.02    0.00  1.0000
  -4  14   0   30002    2960                                                       33237    2.13    0.00  1.0000
  -3  14   0    2859     880                                                        3720    1.76    0.00  1.0000
  -2  14   0       4     730                                                         -90   -0.47    0.00  1.0000
  -1  14   0    2328     690                                                        1040    3.74    0.00  1.0000
   0  14   0    6218     910                                                        9019    3.77    0.00  1.0000
   1  14   0   14957    1630                                                       22058    6.13    0.00  1.0000
   2  14   0   19591    1810                                                       25727    4.78    0.00  1.0000
   3  14   0      19     760                                                        1350    9.60    0.00  1.0000
   4  14   0      36     840                                                        1490   10.42    0.00  1.0000
   5  14   0    3471    1200                                                       10009    9.61    0.00  1.0000
   6  14   0      11    1080                                                       -1660    0.78    0.00  1.0000
 -14  14   0     651    1590                                                         870    0.93    0.00  1.0000
 -14  15   0    2088    1710                                                        3320    2.79    0.00  1.0000
 -13  15   0   14263    1960                                                       13759    0.50    0.00  1.0000
 -12  15   0    8680    1620                                                        5679   -4.16    0.00  1.0000
 -11  15   0       3    1370                                                         350   -4.78    0.00  1.0000
 -10  15   0     219    1210                                                       -2240   -3.46    0.00  1.0000
  -9  15   0     131    1260                                                          20    1.64    0.00  1.0000
  -8  15   0    2951    1260                                                        3670    1.46    0.00  1.0000
  -7  15   0    4420    1230                                                        4630    0.37    0.00  1.0000
  -6  15   0    9043    1290                                                        9359   -0.38    0.00  1.0000
  -5  15   0    7411    1080                                                        6019    1.99    0.00  1.0000
  -4  15   0    1072     890                                                        1210   -0.48    0.00  1.0000
  -3  15   0     256     910                                                         330   -0.51    0.00  1.0000
  -2  15   0    6663     830                                                        3670   -4.92    0.00  1.0000
  -1  15   0    2089     720                                                        1200   -2.59    0.00  1.0000
   0  15   0    5743     730                                                        2730   -5.50    0.00  1.0000
   1  15   0    2697     760                                                        1570   -2.88    0.00  1.0000
   2  15   0    8033    1110                                                       12049   -4.71    0.00  1.0000
   3  15   0    6698    1000                                                        8369   -2.25    0.00  1.0000
   4  15   0     122     870                                                         520   -2.75    0.00  1.0000
   5  15   0    1454    1020                                                        2240   -2.15    0.00  1.0000
   6  15   0     380    1170                                                        -150   -4.56    0.00  1.0000
 -15  14   0    4999    1760                                                        4310   -1.18    0.00  1.0000
 -15  15   0    1375    1720                                                        2820    3.75    0.00  1.0000
 -15  16   0     482    1840                                                        -190   -5.13    0.00  1.0000
 -14  16   0    1384    1750                                                        2970   -4.04    0.00  1.0000
 -13  16   0      55    1540                                                         160   -1.23    0.00  1.0000
 -12  16   0     313    1430                                                        -370   -4.13    0.00  1.0000
 -11  16   0     289    1360                                                        -640   -3.97    0.00  1.0000
 -10  16   0   14643    1960                                                       18558   -3.56    0.00  1.0000
  -9  16   0    6142    1400                                                        5619   -0.80    0.00  1.0000
  -8  16   0       0    1140                                                       -2650   -0.09    0.00  1.0000
  -7  16   0    2329    1150                                                        2690   -0.84    0.00  1.0000
  -6  16   0    9917    1900                                                        9029   -1.07    0.00  1.0000
  -5  16   0   13692    1500                                                       15448    1.70    0.00  1.0000
  -4  16   0   21082    1780                                                       19638    1.18    0.00  1.0000
  -3  16   0    3096     860                                                        1330    4.48    0.00  1.0000
  -2  16   0     631     820                                                        1320    2.62    0.00  1.0000
  -1  16   0    8516     800                                                        4300    6.24    0.00  1.0000
   0  16   0   14168    1080                                                       10149    4.27    0.00  1.0000
   1  16   0    8416     840                                                        4740    5.35    0.00  1.0000
   2  16   0    7708     910                                                        5959    2.48    0.00  1.0000
   3  16   0    2638     880                                                        3010    0.82    0.00  1.0000
   4  16   0   18489    1720                                                       19148    0.56    0.00  1.0000
   5  16   0    5188    1130                                                        4510    1.14    0.00  1.0000
   6  16   0    1106    1250                                                         290    3.79    0.00  1.0000
 -16  14   0   25975    2360                                                       21638    3.29    0.00  1.0000
 -16  15   0    1803    1840                                                        3450    3.80    0.00  1.0000
 -14  17   0     341    1590                                                       -1440   -4.32    0.00  1.0000
 -13  17   0    2221    1600                                                        2630    0.97    0.00  1.0000
 -12  17   0    1091    1560                                                         870    0.83    0.00  1.0000
 -11  17   0      30    1450                                                        -530    1.29    0.00  1.0000
 -10  17   0      10    1330                                                       -1480   -0.75    0.00  1.0000
  -9  17   0    2432    1380                                                        2130   -0.74    0.00  1.0000
  -8  17   0     463    1250                                                         480   -0.09    0.00  1.0000
  -7  17   0   23961    2210                                                       23898    0.05    0.00  1.0000
  -6  17   0    3037    1080                                                        2200   -1.92    0.00  1.0000
  -5  17   0    4676    1080                                                        3970   -1.26    0.00  1.0000
  -4  17   0    2503     970                                                        1470   -2.73    0.00  1.0000
  -3  17   0    1065     860                                                        1280   -0.73    0.00  1.0000
  -2  17   0   16557    1670                                                       12169   -4.29    0.00  1.0000
  -1  17   0    2353     820                                                        4540   -4.41    0.00  1.0000
   0  17   0    1789     890                                                        4180   -5.23    0.00  1.0000
   1  17   0   45652    2520                                                       37646   -4.59    0.00  1.0000
   2  17   0    8980     960                                                        5929   -4.15    0.00  1.0000
   3  17   0    3207    1030                                                        6549   -5.68    0.00  1.0000
   4  17   0     177     970                                                       -1250   -3.11    0.00  1.0000
   5  17   0     250    1160                                                        1210   -4.43    0.00  1.0000
   6  17   0      54    1300                                                       -2170   -1.72    0.00  1.0000
 -17  14   0     532    1780                                                        -330   -5.39    0.00  1.0000
 -13  18   0    3003    1660                                                        2480   -1.17    0.00  1.0000
 -12  18   0      27    1540                                                        -370    1.21    0.00  1.0000
 -11  18   0    3333    1520                                                        1810    3.55    0.00  1.0000
 -10  18   0   18494    2120                                                       20178    1.42    0.00  1.0000
  -9  18   0    9753    1570                                                        8889    1.05    0.00  1.0000
  -8  18   0      11    1260                                                        -380    0.79    0.00  1.0000
  -7  18   0   30072    2600                                                       32937    1.89    0.00  1.0000
  -6  18   0   14903    1560                                                       14999   -0.09    0.00  1.0000
  -4  18   0    4429    1060                                                        5339    1.52    0.00  1.0000
  -3  18   0     889     960                                                        2200    3.99    0.00  1.0000
  -2  18   0    9220    1020                                                        7199    2.61    0.00  1.0000
   0  18   0     534     890                                                        1860    4.68    0.00  1.0000
   1  18   0     895     900                                                        2400    4.46    0.00  1.0000
   2  18   0    8910    1010                                                        5159    5.28    0.00  1.0000
   3  18   0   17863    1590                                                       15628    2.02    0.00  1.0000
   4  18   0    4763    1260                                                        8359    5.24    0.00  1.0000
   5  18   0    3985    1320                                                        4910    1.62    0.00  1.0000
   6  18   0   25269    2100                                                       22048    2.45    0.00  1.0000
 -11  19   0    2992    1650                                                        2460    1.19    0.00  1.0000
 -10  19   0    1562    1480                                                        2100    1.47    0.00  1.0000
  -9  19   0     149    1320                                                         490    2.32    0.00  1.0000
  -8  19   0   24108    2300                                                       24268   -0.12    0.00  1.0000
  -7  19   0   50199    3530                                                       50165   -0.02    0.00  1.0000
  -6  19   0     252    1120                                                         660   -2.30    0.00  1.0000
  -5  19   0   20384    2040                                                       22118   -1.39    0.00  1.0000
  -4  19   0   31268    2270                                                       29357   -1.28    0.00  1.0000
  -3  19   0    6978    1060                                                        7059   -0.11    0.00  1.0000
  -2  19   0    9383    1120                                                        9399   -0.02    0.00  1.0000
  -1  19   0    6284    1090                                                        5539   -1.13    0.00  1.0000
   0  19   0    7427    1590                                                        6239    1.68    0.00  1.0000
   1  19   0   29686    2190                                                       29917   -0.16    0.00  1.0000
   2  19   0    7383    1150                                                        7539    0.21    0.00  1.0000
   3  19   0    4670    1090                                                        3420   -2.30    0.00  1.0000
   4  19   0     148    1140                                                        -430    2.85    0.00  1.0000
   5  19   0       0    1320                                                       -1880    0.00    0.00  1.0000
   6  19   0       2    1510                                                       -4700   -0.30    0.00  1.0000
  -9  20   0     252    1320                                                         700    2.47    0.00  1.0000
  -8  20   0    1490    1300                                                        2160   -1.84    0.00  1.0000
  -7  20   0    7017    1410                                                        8539   -2.02    0.00  1.0000
  -6  20   0    4274    1210                                                        2670   -3.20    0.00  1.0000
  -5  20   0     111     980                                                       -2080   -2.47    0.00  1.0000
  -3  20   0     680     920                                                         740   -0.26    0.00  1.0000
  -2  20   0    4214    1000                                                        2850    2.70    0.00  1.0000
  -1  20   0   29307    2420                                                       33437    2.73    0.00  1.0000
   0  20   0     988    1380                                                         150    4.48    0.00  1.0000
   1  20   0    5272    1270                                                        4090    2.02    0.00  1.0000
   2  20   0   72164    4710                                                       74793    1.13    0.00  1.0000
   3  20   0    3756    1250                                                        4250   -0.91    0.00  1.0000
   4  20   0   24572    1820                                                       18748    4.64    0.00  1.0000
   5  20   0   18518    2270                                                       24008    4.41    0.00  1.0000
  -7  21   0    1787    1250                                                        1550   -0.68    0.00  1.0000
  -6  21   0    3395    1210                                                        4430   -1.94    0.00  1.0000
  -5  21   0    1400    1140                                                        2750   -3.51    0.00  1.0000
  -4  21   0      86     980                                                         950   -5.03    0.00  1.0000
  -3  21   0     405     940                                                          50   -3.05    0.00  1.0000
  -2  21   0     499    1060                                                         620   -0.60    0.00  1.0000
  -1  21   0     484    1060                                                         190   -1.92    0.00  1.0000
   0  21   0     467    1070                                                        1290   -3.34    0.00  1.0000
  -2  22   0       3    1050                                                       -1950   -0.41    0.00  1.0000
  -1   0  -1  134259    2060                                                       32497  -43.51    0.00  1.0000
   0  -1  -1  133657    2000                                                       32197   43.51    0.00  1.0000
   1   0  -1  134133    2030                                                       32437  -43.51    0.00  1.0000
   0   1  -1  135364    2070                                                       33047   43.51    0.00  1.0000
   1   1  -1  441728   20168                                                      343846   18.29    0.00  1.0000
  -1   1  -1  437759   20178                                                      340376  -18.28    0.00  1.0000
   1  -1  -1  437704   20158                                                      340316  -18.29    0.00  1.0000
  -1  -1  -1  439065   20168                                                      341526   18.28    0.00  1.0000
   2   1  -1   71669   12139                                                      206669   43.69    0.00  1.0000
   1  -2  -1   70562   12119                                                      204790  -43.69    0.00  1.0000
  -2  -1  -1   68510   12129                                                      201290   43.69    0.00  1.0000
  -1   2  -1   71869   12159                                                      206999  -43.69    0.00  1.0000
  -2   0  -1  137352    8039                                                      133397    1.26    0.00  1.0000
   0  -2  -1  137971    7989                                                      134027   -1.25    0.00  1.0000
   0   2  -1  142881    8049                                                      138846   -1.26    0.00  1.0000
   2   0  -1  137993    8029                                                      134047    1.25    0.00  1.0000
  -2   1  -1   34833    4050                                                       67023   16.89    0.00  1.0000
  -1  -2  -1   33101    3950                                                       64624  -16.89    0.00  1.0000
   2  -1  -1   34520    4000                                                       66583   16.89    0.00  1.0000
   1   2  -1   33989    4000                                                       65853  -16.89    0.00  1.0000
   2  -2  -1  131037    8309                                                      141466   -3.30    0.00  1.0000
  -2   2  -1  129140    8329                                                      139506   -3.31    0.00  1.0000
  -2  -2  -1  127050    8279                                                      137326    3.30    0.00  1.0000
   2   2  -1  129265    8299                                                      139636    3.31    0.00  1.0000
   3   2  -1   40611    1130                                                       14459  -19.00    0.00  1.0000
  -2   3  -1   39794    1210                                                       13979   18.99    0.00  1.0000
  -3  -1  -1   25936    1770                                                       25747    0.14    0.00  1.0000
   1  -3  -1   25894    1680                                                       25697   -0.14    0.00  1.0000
   3   1  -1   23120    1810                                                       22938    0.14    0.00  1.0000
  -1   3  -1   25258    1800                                                       25067   -0.14    0.00  1.0000
   0   3  -1   26368     690                                                        2990   25.18    0.00  1.0000
   0  -3  -1   25707     370                                                        2770   25.18    0.00  1.0000
  -3   0  -1   26459     750                                                        3020  -25.18    0.00  1.0000
   3   0  -1   24800     740                                                        2480  -25.17    0.00  1.0000
  -3   1  -1   88414    7469                                                      126647  -13.68    0.00  1.0000
   1   3  -1   89209    7429                                                      127587   13.68    0.00  1.0000
   3  -1  -1   87288    7469                                                      125287  -13.68    0.00  1.0000
  -1  -3  -1   81972    7359                                                      118908   13.68    0.00  1.0000
  -3   2  -1   27988    3900                                                       62354  -19.26    0.00  1.0000
  -2  -3  -1   27690    3750                                                       61914   19.27    0.00  1.0000
   2   3  -1   28314    3820                                                       62854   19.27    0.00  1.0000
  -3   3  -1   68627    3880                                                       62794   -2.66    0.00  1.0000
   3   3  -1   66380    3810                                                       60644    2.66    0.00  1.0000
   4   3  -1   17578    2560                                                       37306   14.16    0.00  1.0000
  -3   4  -1   18313    2600                                                       38366  -14.15    0.00  1.0000
  -2   4  -1  167176    8469                                                      141546   -7.63    0.00  1.0000
   4   2  -1  166611    8469                                                      141016    7.63    0.00  1.0000
   4   1  -1   77766    2740                                                       40546   18.12    0.00  1.0000
  -1   4  -1   78214    2660                                                       40866  -18.12    0.00  1.0000
   0   4  -1   53776    4730                                                       77982  -11.07    0.00  1.0000
   4   0  -1   52812    4800                                                       76832   11.07    0.00  1.0000
  -4   1  -1  250832   18918                                                      321318   15.43    0.00  1.0000
   1   4  -1  255156   18898                                                      326227  -15.44    0.00  1.0000
   4  -1  -1  241232   18928                                                      310429   15.43    0.00  1.0000
  -2  -4  -1   28928    1030                                                       15068  -11.06    0.00  1.0000
  -4   2  -1   32146    1570                                                       17418   11.06    0.00  1.0000
   2   4  -1   28328    1320                                                       14639  -11.06    0.00  1.0000
   3   4  -1  186690   13669                                                      228387  -10.71    0.00  1.0000
  -4   3  -1  190396   13719                                                      232467   10.71    0.00  1.0000
   4   4  -1   86899    5459                                                       88281    0.55    0.00  1.0000
  -4   4  -1   90346    5529                                                       91761   -0.55    0.00  1.0000
   5   4  -1   17757    1660                                                       17938   -0.16    0.00  1.0000
  -4   5  -1   17542    1710                                                       17728    0.16    0.00  1.0000
   5   3  -1   16681    2000                                                       24578    6.46    0.00  1.0000
  -3   5  -1   16489    2000                                                       24348   -6.46    0.00  1.0000
  -2   5  -1  134963    8689                                                      147745   -3.97    0.00  1.0000
   5   2  -1  129606    8729                                                      142136    3.97    0.00  1.0000
   5   1  -1   12711    1170                                                        9239   -3.89    0.00  1.0000
  -1   5  -1   10457     960                                                        7339    3.88    0.00  1.0000
   5   0  -1    3488    1430                                                       14269  -14.12    0.00  1.0000
   0   5  -1    3466    1220                                                       14229   14.12    0.00  1.0000
   1   5  -1   63582    7289                                                      121648   22.59    0.00  1.0000
   2   5  -1    2482     700                                                        1520   20.76    0.00  1.0000
   3   5  -1  143212   11589                                                      197610   15.45    0.00  1.0000
  -5   3  -1  138664   11649                                                      192241  -15.45    0.00  1.0000
  -5   4  -1  139643    6999                                                      113349   -8.65    0.00  1.0000
   4   5  -1  142878    6919                                                      116268    8.65    0.00  1.0000
  -5   5  -1   64302    4060                                                       62644    0.77    0.00  1.0000
   5   5  -1   64523    3970                                                       62874   -0.76    0.00  1.0000
  -5   6  -1   48760    3530                                                       53675    2.54    0.00  1.0000
   6   5  -1   48657    3520                                                       53575   -2.54    0.00  1.0000
   6   4  -1    6564    1240                                                        9799    4.20    0.00  1.0000
  -4   6  -1    7229    1210                                                       10609   -4.20    0.00  1.0000
  -3   6  -1   25800    1500                                                       18078   -6.12    0.00  1.0000
   6   3  -1   24869    1630                                                       17308    6.11    0.00  1.0000
  -2   6  -1    5566     860                                                         640  -11.53    0.00  1.0000
   6   2  -1    7478    1150                                                        1380   11.53    0.00  1.0000
  -1   6  -1    2952     960                                                        7079   -6.97    0.00  1.0000
   0   6  -1   15579    1020                                                        9429   -6.48    0.00  1.0000
   1   6  -1   13834    1410                                                       16158    2.22    0.00  1.0000
   2   6  -1    1497     700                                                         770   -2.56    0.00  1.0000
   3   6  -1   18128    1690                                                       22408   -3.52    0.00  1.0000
   4   6  -1   13675    1020                                                        8939   -5.23    0.00  1.0000
  -6   4  -1   15921    1230                                                       10779    5.23    0.00  1.0000
   5   6  -1    4744    1030                                                        7119   -3.62    0.00  1.0000
  -6   5  -1    5534    1190                                                        8079    3.62    0.00  1.0000
  -6   6  -1     705    1060                                                         210    2.82    0.00  1.0000
   6   6  -1    2697     960                                                        1590   -2.82    0.00  1.0000
   7   6  -1   27098    2350                                                       29207   -1.47    0.00  1.0000
   7   5  -1   56830    3400                                                       50125   -3.39    0.00  1.0000
  -5   7  -1   54964    3310                                                       48375    3.39    0.00  1.0000
  -4   7  -1    6067    1090                                                        7639    2.22    0.00  1.0000
   7   4  -1    6000    1350                                                        7559   -2.22    0.00  1.0000
  -3   7  -1    2322    1170                                                        9559   11.59    0.00  1.0000
   7   3  -1    3084    1390                                                       11049  -11.59    0.00  1.0000
  -2   7  -1   20575    2260                                                       31267    7.80    0.00  1.0000
  -1   7  -1     211     840                                                        2820    9.02    0.00  1.0000
   0   7  -1   21012    1390                                                       14479    5.76    0.00  1.0000
   1   7  -1   57183    1980                                                       28077   16.73    0.00  1.0000
   2   7  -1    8054     720                                                        1450   12.08    0.00  1.0000
   3   7  -1    8448     740                                                        3160    8.34    0.00  1.0000
   4   7  -1    3686     890                                                        5179    2.63    0.00  1.0000
   5   7  -1   10664    1460                                                       14759    4.26    0.00  1.0000
   6   7  -1    7547    1060                                                        6819    1.00    0.00  1.0000
  -7   6  -1    6838    1200                                                        6149   -1.00    0.00  1.0000
  -7   7  -1    1655    1100                                                         700    3.32    0.00  1.0000
   7   7  -1    2656    1070                                                        1390   -3.33    0.00  1.0000
   8   7  -1    2761    1270                                                        5359   -4.83    0.00  1.0000
  -7   8  -1    1430    1150                                                        3420    4.83    0.00  1.0000
  -6   8  -1    8626    1280                                                        9639   -1.24    0.00  1.0000
   8   6  -1    9340    1440                                                       10399    1.25    0.00  1.0000
  -5   8  -1    5680    1090                                                        5199   -0.76    0.00  1.0000
  -4   8  -1   54264    3740                                                       57184   -1.45    0.00  1.0000
  -3   8  -1    6493    1300                                                       12899    7.71    0.00  1.0000
  -2   8  -1   66531    4010                                                       63764    1.27    0.00  1.0000
  -1   8  -1     160     820                                                         670   -3.10    0.00  1.0000
  -1   8   1     383     480                                                        1080   -3.10    0.00  1.0000
   0   8  -1   27253    1440                                                       15548   -9.44    0.00  1.0000
   1   8  -1    4050     780                                                        4190    0.26    0.00  1.0000
   2   8  -1    3546     730                                                        2200   -2.96    0.00  1.0000
   3   8  -1   35642    1850                                                       25487   -6.81    0.00  1.0000
   4   8  -1   13261    1830                                                       23798   -9.14    0.00  1.0000
   5   8  -1   10328    1090                                                        9929    0.46    0.00  1.0000
   6   8  -1    7654    1280                                                       12629    5.82    0.00  1.0000
  -8   7  -1    7048    1370                                                        9849   -3.57    0.00  1.0000
   7   8  -1    6973    1610                                                        9759    3.57    0.00  1.0000
   8   8  -1    6896    1290                                                        6239    0.95    0.00  1.0000
  -8   8  -1    5682    1240                                                        5089   -0.94    0.00  1.0000
  -8   9  -1    8886    1500                                                        8699   -0.23    0.00  1.0000
   9   8  -1    9891    1480                                                        9689    0.24    0.00  1.0000
   9   7  -1   48262    2920                                                       38436   -5.52    0.00  1.0000
  -7   9  -1   48650    2810                                                       38786    5.52    0.00  1.0000
  -6   9  -1    4881    1110                                                        4640   -0.41    0.00  1.0000
  -5   9  -1   15501    1510                                                       15888    0.36    0.00  1.0000
  -4   9  -1   19707    1810                                                       19288   -0.35    0.00  1.0000
  -3   9  -1    5393     900                                                        1630    7.73    0.00  1.0000
  -2   9  -1    1292     900                                                        3050    4.51    0.00  1.0000
  -2   9   1    1104     660                                                        2760    4.51    0.00  1.0000
  -1   9  -1     263     810                                                         980    3.52    0.00  1.0000
  -1   9   1     647     540                                                        1640    3.52    0.00  1.0000
   0   9  -1    8362     990                                                        9009    0.81    0.00  1.0000
   1   9  -1      29     700                                                        1290    9.66    0.00  1.0000
   2   9  -1    2719     980                                                        9079   10.09    0.00  1.0000
   3   9  -1     725     720                                                        -390    6.30    0.00  1.0000
   4   9  -1     484     770                                                         290    1.16    0.00  1.0000
   5   9  -1       1     830                                                         220    3.69    0.00  1.0000
   6   9  -1    7325    1290                                                       12239    5.85    0.00  1.0000
  -9   7  -1   49194    3130                                                       45535   -1.97    0.00  1.0000
   7   9  -1   45821    3030                                                       42286    1.97    0.00  1.0000
   8   9  -1   30805    2320                                                       28247   -1.74    0.00  1.0000
  -9   8  -1   27116    2360                                                       24728    1.73    0.00  1.0000
  -9   9  -1   16230    1840                                                       18678    2.17    0.00  1.0000
   9   9  -1   16611    1870                                                       19088   -2.17    0.00  1.0000
  -9  10  -1     285    1230                                                         820   -2.75    0.00  1.0000
  -8  10  -1   17773    2140                                                       22748   -4.09    0.00  1.0000
  -7  10  -1   17929    2210                                                       24748    5.47    0.00  1.0000
  -6  10  -1    1854    1090                                                        2870    2.46    0.00  1.0000
  -5  10  -1   23910    2010                                                       22448    1.12    0.00  1.0000
  -4  10  -1    6015    1300                                                       10729   -6.08    0.00  1.0000
  -3  10  -1   20965    1390                                                       16118   -4.17    0.00  1.0000
  -3  10   1   18109    1200                                                       13619   -4.18    0.00  1.0000
  -2  10  -1   10802     990                                                        6739   -5.11    0.00  1.0000
  -2  10   1   10632     790                                                        6609   -5.10    0.00  1.0000
  -1  10  -1    1437     830                                                        2540   -2.92    0.00  1.0000
  -1  10   1    1207     530                                                        2230   -2.92    0.00  1.0000
   0  10  -1   33307    2790                                                       42446   -5.50    0.00  1.0000
   1  10  -1    5290     940                                                        8589   -4.66    0.00  1.0000
   2  10  -1    8554    1240                                                       11879   -3.86    0.00  1.0000
   3  10  -1   12860    1410                                                       15798   -2.87    0.00  1.0000
   4  10  -1    7212     890                                                        5269   -2.88    0.00  1.0000
   5  10  -1    7122     990                                                        6449   -0.96    0.00  1.0000
   6  10  -1   31654    2420                                                       28697    1.99    0.00  1.0000
   7  10  -1   37851    2980                                                       42956    2.97    0.00  1.0000
 -10   8  -1    9525    1470                                                        8639   -1.09    0.00  1.0000
   8  10  -1   13703    1420                                                       12639    1.08    0.00  1.0000
 -10   9  -1   31815    2670                                                       32997   -0.77    0.00  1.0000
   9  10  -1   31363    2710                                                       32547    0.77    0.00  1.0000
 -10  10  -1    9859    1480                                                        7869   -2.47    0.00  1.0000
 -10  11  -1     813    1370                                                        2180   -4.25    0.00  1.0000
  -9  11  -1   10716    1370                                                        7759   -3.61    0.00  1.0000
  -8  11  -1    6278    1420                                                        9719   -4.52    0.00  1.0000
 -11  -7  -1     681    2330                                                        -490   -6.10    0.00  1.0000
  -7  11  -1     682    3810                                                        -130    6.10    0.00  1.0000
   7 -11  -1     699    3570                                                        2760    6.10    0.00  1.0000
  11   7  -1     740    2830                                                        2840   -6.10    0.00  1.0000
  11   7   1      76    3270                                                        1210   -6.10    0.00  1.0000
 -11  -7   1      44    2740                                                        1070   -6.10    0.00  1.0000
  -7  11   1     629    3490                                                        2620    6.10    0.00  1.0000
   7 -11   1     682    3310                                                        -820    6.10    0.00  1.0000
  -6  11  -1    9178    1500                                                       13419    4.68    0.00  1.0000
  -5  11  -1   19545    1560                                                       16288    2.85    0.00  1.0000
  -4  11  -1     622     890                                                        -990   -5.83    0.00  1.0000
  -4  11   1     621     750                                                        -360   -5.83    0.00  1.0000
  -3  11  -1    2435    1070                                                        4790   -4.64    0.00  1.0000
  -3  11   1    2962     790                                                        5519   -4.64    0.00  1.0000
  -2  11  -1   20685    1700                                                       19998    0.56    0.00  1.0000
  -2  11   1   20044    1490                                                       19368    0.56    0.00  1.0000
  -1  11  -1    4592    1110                                                       10569    8.19    0.00  1.0000
  -1  11   1    4524     960                                                       10469    8.19    0.00  1.0000
   0  11  -1    2760     970                                                        7729    8.27    0.00  1.0000
   1  11  -1    3961     880                                                        6149    3.62    0.00  1.0000
   2  11  -1   25879    2090                                                       29697    2.68    0.00  1.0000
   3  11  -1     523     800                                                        2380    6.06    0.00  1.0000
   4  11  -1    1206     780                                                          20    7.07    0.00  1.0000
   5  11  -1    1294     910                                                        3310    5.04    0.00  1.0000
   6  11  -1      18     930                                                         -30    0.99    0.00  1.0000
   7  11  -1    4726    1100                                                        4010    1.27    0.00  1.0000
   8  11  -1   12041    1380                                                        9829   -2.48    0.00  1.0000
 -11   9  -1   37220    3220                                                       42286    2.97    0.00  1.0000
   9  11  -1   37790    3200                                                       42896   -2.97    0.00  1.0000
 -11  10  -1   24415    1870                                                       18758    4.51    0.00  1.0000
  10  11  -1   20455    1850                                                       15308   -4.51    0.00  1.0000
 -11  11  -1      18    1400                                                        -810    0.99    0.00  1.0000
 -11  12  -1    1856    1370                                                        1210    1.94    0.00  1.0000
 -10  12  -1    2677    1320                                                        2300   -0.88    0.00  1.0000
  -9  12  -1     914    1260                                                         930   -0.06    0.00  1.0000
  -8  12  -1     223    1210                                                        1250   -4.77    0.00  1.0000
  -7  12  -1    2899    1200                                                        3950    2.11    0.00  1.0000
  -6  12  -1    4432    1130                                                        2600    3.64    0.00  1.0000
  -5  12  -1    5537    1210                                                        9969    5.95    0.00  1.0000
  -5  12   1    3026    1020                                                        6469    5.94    0.00  1.0000
  -4  12  -1   24133    2030                                                       24338    0.15    0.00  1.0000
  -4  12   1   24461    1840                                                       24668    0.15    0.00  1.0000
  -3  12  -1     173     870                                                        -360   -3.07    0.00  1.0000
  -3  12   1     487     710                                                          80   -3.07    0.00  1.0000
  -2  12  -1   35921    2640                                                       39396   -2.09    0.00  1.0000
  -2  12   1   34460    2480                                                       37876   -2.10    0.00  1.0000
  -1  12  -1   34539    2770                                                       38056    2.16    0.00  1.0000
  -1  12   1   36298    2470                                                       39906    2.16    0.00  1.0000
   0  12  -1    4790     920                                                        6619    2.84    0.00  1.0000
   1  12  -1   26228    2150                                                       30387   -2.89    0.00  1.0000
   2  12  -1   23484    1420                                                       14649   -7.53    0.00  1.0000
   3  12  -1    7693    1160                                                       11919   -5.02    0.00  1.0000
   4  12  -1   12184    1370                                                       14979   -2.81    0.00  1.0000
   5  12  -1   17155    1640                                                       18418    1.11    0.00  1.0000
   6  12  -1    3582    1040                                                        3460    0.24    0.00  1.0000
   7  12  -1     309    1040                                                        1710    5.56    0.00  1.0000
   8  12  -1     103    1150                                                        -320    2.37    0.00  1.0000
 -12   9  -1      87    1320                                                        -450   -2.18    0.00  1.0000
   9  12  -1      87    1370                                                       -1300    2.17    0.00  1.0000
 -12  10  -1    3728    1480                                                        4660    1.68    0.00  1.0000
  10  12  -1    3733    1500                                                        4660   -1.68    0.00  1.0000
 -12  11  -1    6042    1600                                                        7219   -1.69    0.00  1.0000
 -12  12  -1   21786    2170                                                       20148   -1.32    0.00  1.0000
 -12  13  -1    2703    1530                                                        3890   -2.43    0.00  1.0000
 -11  13  -1    5470    1490                                                        4130    2.27    0.00  1.0000
 -10  13  -1    1340    1420                                                        2460    3.04    0.00  1.0000
  -9  13  -1    1138    1370                                                        3380    5.70    0.00  1.0000
  -8  13  -1   12602    1620                                                       13749   -1.17    0.00  1.0000
  -7  13  -1    3065    1210                                                        2540   -1.16    0.00  1.0000
  -6  13  -1    5635    1210                                                        5939    0.47    0.00  1.0000
  -6  13   1    1654    1240                                                        1820    0.47    0.00  1.0000
  -5  13  -1   51783    2910                                                       42236    5.15    0.00  1.0000
  -5  13   1   50948    2820                                                       41476    5.16    0.00  1.0000
  -4  13  -1   10774    1660                                                       15848    5.16    0.00  1.0000
  -4  13   1   11059    1490                                                       16188    5.16    0.00  1.0000
  -3  13  -1    1595     920                                                        2100    1.38    0.00  1.0000
  -3  13   1    1018     730                                                        1430    1.38    0.00  1.0000
  -2  13  -1      91     840                                                         150   -0.64    0.00  1.0000
  -2  13   1     187     610                                                         270   -0.64    0.00  1.0000
  -1  13  -1    2029     840                                                        2500    1.16    0.00  1.0000
  -1  13   1    1892     560                                                        2350    1.16    0.00  1.0000
   0  13  -1   13518    1110                                                       10109    3.68    0.00  1.0000
  -1 -13  -1   17555    4390                                                       14239    3.08    0.00  1.0000
   1  13  -1   20465    4410                                                       16868    3.08    0.00  1.0000
  -1 -13   1   18798    4590                                                       15358    3.08    0.00  1.0000
  13  -1   1   12552    2930                                                        9779   -3.07    0.00  1.0000
  -2 -13  -1    3276    4020                                                        4130   -1.64    0.00  1.0000
 -13   2  -1    4395    2390                                                        5379    1.65    0.00  1.0000
   2  13  -1    3247    3500                                                        4100   -1.65    0.00  1.0000
  13  -2   1    1102    2730                                                        1620    1.65    0.00  1.0000
  -2 -13   1    2513    4310                                                        3270   -1.65    0.00  1.0000
   3  13  -1    2677    1040                                                        2820    0.32    0.00  1.0000
   4  13  -1     597     840                                                         490    0.54    0.00  1.0000
   5  13  -1      97     900                                                        1050    5.27    0.00  1.0000
   6  13  -1      45     970                                                       -1990    1.57    0.00  1.0000
   7  13  -1     940    1090                                                         240    3.55    0.00  1.0000
   8  13  -1   13178    1520                                                       11859   -1.38    0.00  1.0000
   9  13  -1       1    1640                                                        -190    0.27    0.00  1.0000
 -13  10  -1    2611    1490                                                        2590   -0.05    0.00  1.0000
  10  13  -1       0    1410                                                        -630    0.05    0.00  1.0000
 -13  11  -1     422    1390                                                       -3150   -4.80    0.00  1.0000
 -13  12  -1    1324    1620                                                        2720   -3.69    0.00  1.0000
 -13  13  -1    6952    1730                                                        5149   -2.72    0.00  1.0000
 -13  14  -1    5314    1710                                                        5319   -0.01    0.00  1.0000
 -12  14  -1    5053    1650                                                        4660   -0.66    0.00  1.0000
 -11  14  -1    4137    1530                                                        2270    3.90    0.00  1.0000
 -10  14  -1    1307    1440                                                        2960    4.27    0.00  1.0000
  -9  14  -1     363    1340                                                        2000    6.00    0.00  1.0000
  -8  14  -1    1055    1280                                                         920    0.50    0.00  1.0000
  -8  14   1     513    1050                                                         420    0.50    0.00  1.0000
  -7  14  -1    8453    1310                                                        5919   -3.51    0.00  1.0000
  -7  14   1    6993    1140                                                        4710   -3.51    0.00  1.0000
  -6  14  -1      37    1060                                                         230   -2.12    0.00  1.0000
  -6  14   1     263     920                                                         640   -2.12    0.00  1.0000
  -5  14  -1    3266    1070                                                        2520    1.62    0.00  1.0000
  -5  14   1    4664     940                                                        3760    1.63    0.00  1.0000
  -4  14  -1     491     990                                                        2010    5.30    0.00  1.0000
  -4  14   1      78     850                                                         990    5.29    0.00  1.0000
  -3  14  -1    5436     980                                                        3930    2.58    0.00  1.0000
  -3  14   1    3284     730                                                        2140    2.58    0.00  1.0000
  -2  14  -1    3200     900                                                        3950   -1.47    0.00  1.0000
  -2  14   1    2113     700                                                        2730   -1.47    0.00  1.0000
  -1  14  -1    3999     840                                                        2460   -3.19    0.00  1.0000
  -1  14   1    6153     600                                                        4200   -3.19    0.00  1.0000
   0  14  -1     297     760                                                        1200   -4.07    0.00  1.0000
   1  14  -1    3054     830                                                        1830   -2.92    0.00  1.0000
   2  14  -1   52168    2700                                                       40246   -6.50    0.00  1.0000
   3  14  -1   17388    1720                                                       21138   -3.16    0.00  1.0000
   4  14  -1    2758     880                                                        1570   -3.01    0.00  1.0000
   5  14  -1    4579    1050                                                        5459    1.45    0.00  1.0000
   6  14  -1    5121    1160                                                        6019   -1.41    0.00  1.0000
   7  14  -1       2    1100                                                        -590    0.36    0.00  1.0000
   8  14  -1    1168    1350                                                        1750   -1.79    0.00  1.0000
   9  14  -1     532    1410                                                         460    0.38    0.00  1.0000
  10  14  -1    2602    1580                                                        3190    1.28    0.00  1.0000
 -14  10  -1    4533    1540                                                        5299   -1.28    0.00  1.0000
 -14  11  -1     273    1540                                                        -110   -3.86    0.00  1.0000
 -14  12  -1    4428    1770                                                        5759   -2.18    0.00  1.0000
 -14  13  -1    1914    1750                                                        2360   -1.13    0.00  1.0000
 -14  14  -1    2128    1670                                                        1860   -0.70    0.00  1.0000
 -14  15  -1    2110    1830                                                        3880   -3.82    0.00  1.0000
 -13  15  -1     523    1660                                                         270   -1.50    0.00  1.0000
 -12  15  -1    1514    1640                                                        2710   -3.07    0.00  1.0000
 -11  15  -1   10502    1760                                                       10379   -0.14    0.00  1.0000
 -10  15  -1    2404    1460                                                        3070   -1.49    0.00  1.0000
 -10  15   1    1392    1280                                                        1910   -1.49    0.00  1.0000
  -9  15  -1       1    1360                                                       -2760   -0.21    0.00  1.0000
  -9  15   1       1    1150                                                       -1050   -0.21    0.00  1.0000
  -8  15  -1      12    1270                                                        -240    0.82    0.00  1.0000
  -7  15  -1    2091    1240                                                        2630   -1.30    0.00  1.0000
  -7  15   1    2649    1030                                                        3250   -1.29    0.00  1.0000
  -6  15  -1     792    1110                                                         810    0.07    0.00  1.0000
  -6  15   1     873     990                                                         890    0.07    0.00  1.0000
  -5  15  -1    7872    1240                                                        7269   -0.81    0.00  1.0000
  -5  15   1    9561    1160                                                        8899   -0.81    0.00  1.0000
  -4  15  -1    1453    1100                                                        2090    1.78    0.00  1.0000
  -4  15   1    3238     890                                                        4160    1.77    0.00  1.0000
  -3  15  -1      50     890                                                        -120    1.65    0.00  1.0000
  -3  15   1    2957     750                                                        2240    1.65    0.00  1.0000
  -2  15  -1      52     850                                                       -3030    1.69    0.00  1.0000
  -2  15   1      52     630                                                        -100    1.69    0.00  1.0000
  -1  15  -1    6649    1070                                                        8939    3.04    0.00  1.0000
  -1  15   1    6084     800                                                        8279    3.04    0.00  1.0000
   0  15  -1    1175     790                                                         790    1.44    0.00  1.0000
   1  15  -1    1464     870                                                        2220    2.07    0.00  1.0000
   2  15  -1    1388     840                                                        1370    0.06    0.00  1.0000
   3  15  -1    5066     900                                                        3090    3.64    0.00  1.0000
   4  15  -1    1724     920                                                         810    3.05    0.00  1.0000
   5  15  -1    3857    1060                                                        4870    1.80    0.00  1.0000
   6  15  -1    1247    1120                                                        2090   -2.43    0.00  1.0000
   7  15  -1     163    1140                                                         -80   -2.99    0.00  1.0000
   8  15  -1    2969    1430                                                        1940   -2.44    0.00  1.0000
   9  15  -1    5306    1570                                                        6039   -1.14    0.00  1.0000
  10  15  -1      45    1570                                                       -3150    1.56    0.00  1.0000
 -15  10  -1    1673    1570                                                        1170   -1.56    0.00  1.0000
 -15  11  -1    4664    1830                                                        6669   -3.12    0.00  1.0000
 -15  12  -1   10196    1900                                                        8509   -2.04    0.00  1.0000
 -15  13  -1    1798    1860                                                        1670    0.36    0.00  1.0000
 -15  14  -1     630    1780                                                         830    0.87    0.00  1.0000
 -15  15  -1    3701    1830                                                        2930   -1.57    0.00  1.0000
 -15  16  -1     527    1870                                                         720    0.90    0.00  1.0000
 -14  16  -1    4848    1860                                                        6599   -2.71    0.00  1.0000
 -14  16   1     620    1600                                                        1330   -2.71    0.00  1.0000
 -13  16  -1       2    1640                                                       -2420   -0.30    0.00  1.0000
 -13  16   1     643    1490                                                         710   -0.30    0.00  1.0000
 -12  16  -1    4118    1640                                                        2620   -3.04    0.00  1.0000
 -12  16   1    3031    1460                                                        1770   -3.04    0.00  1.0000
 -11  16  -1    3227    1630                                                        3860   -1.24    0.00  1.0000
 -11  16   1    6046    1490                                                        6899   -1.24    0.00  1.0000
 -10  16  -1    2290    1560                                                        3810   -3.24    0.00  1.0000
 -10  16   1      12    1340                                                         110   -3.25    0.00  1.0000
  -9  16  -1     227    1400                                                         840   -3.25    0.00  1.0000
  -9  16   1       0    1220                                                         190   -3.25    0.00  1.0000
  -8  16  -1    2552    1310                                                        2860    0.69    0.00  1.0000
  -8  16   1     412    1090                                                         540    0.69    0.00  1.0000
  -7  16  -1    2729    1200                                                        2650    0.18    0.00  1.0000
  -7  16   1       1    1070                                                        -230    0.18    0.00  1.0000
  -6  16  -1    5395    1200                                                        4130    2.15    0.00  1.0000
  -6  16   1    2602    1050                                                        1750    2.14    0.00  1.0000
  -5  16  -1    2470    1080                                                        2810   -0.77    0.00  1.0000
  -5  16   1    1254    1060                                                        1500   -0.77    0.00  1.0000
  -4  16  -1    3228    1080                                                        3130   -0.20    0.00  1.0000
  -4  16   1    4402     920                                                        4290   -0.20    0.00  1.0000
  -3  16  -1    1451     960                                                        1690   -0.71    0.00  1.0000
  -3  16   1    1616     790                                                        1870   -0.71    0.00  1.0000
  -2  16  -1    1030     880                                                        1110    0.29    0.00  1.0000
  -2  16   1     352     670                                                         400    0.29    0.00  1.0000
  -1  16  -1      78     830                                                         330    2.18    0.00  1.0000
  -1  16   1      87     540                                                        -270    2.18    0.00  1.0000
   0  16  -1    1783     860                                                        1480    0.88    0.00  1.0000
   1  16  -1   14918    1500                                                       14949   -0.03    0.00  1.0000
   2  16  -1     552     870                                                         570    0.09    0.00  1.0000
   3  16  -1      72     900                                                         320    2.20    0.00  1.0000
   4  16  -1    1623    1000                                                        2340    1.89    0.00  1.0000
   5  16  -1      27    1030                                                         310   -2.90    0.00  1.0000
   6  16  -1    5331    1320                                                        7589   -3.30    0.00  1.0000
   8  16  -1    1161    1400                                                        1950    2.36    0.00  1.0000
   9  16  -1    1854    1540                                                        1740    0.31    0.00  1.0000
  10  16  -1    4996    1750                                                        5499    0.81    0.00  1.0000
 -16  11  -1    1677    1750                                                        2980    3.19    0.00  1.0000
 -16  12  -1    3206    1890                                                        6959    6.27    0.00  1.0000
 -16  13  -1      96    1870                                                        2070    8.35    0.00  1.0000
 -16  14  -1    8316    1970                                                        6489    2.49    0.00  1.0000
 -16  15  -1     777    1830                                                       -1370   -6.52    0.00  1.0000
 -14  17  -1     421    1820                                                        1530   -4.35    0.00  1.0000
 -14  17   1     345    1560                                                       -1430   -4.34    0.00  1.0000
 -13  17  -1     299    1730                                                         730   -2.27    0.00  1.0000
 -13  17   1     487    1560                                                        1010   -2.27    0.00  1.0000
 -12  17  -1     537    1680                                                        -960   -5.42    0.00  1.0000
 -12  17   1    4075    1500                                                        1650   -5.43    0.00  1.0000
 -11  17  -1    3402    1670                                                        5219   -3.25    0.00  1.0000
 -11  17   1    2483    1530                                                        4060   -3.25    0.00  1.0000
 -10  17  -1     348    1480                                                        -730   -4.36    0.00  1.0000
 -10  17   1     349    1200                                                        -670   -4.36    0.00  1.0000
  -9  17  -1    5615    1430                                                        2830   -5.08    0.00  1.0000
  -9  17   1    5070    1320                                                        2450   -5.07    0.00  1.0000
  -8  17  -1    3082    1340                                                        4050   -1.90    0.00  1.0000
  -8  17   1    2415    1230                                                        3280   -1.90    0.00  1.0000
  -7  17  -1    3703    1280                                                        2930   -1.57    0.00  1.0000
  -7  17   1    3805    1210                                                        3020   -1.57    0.00  1.0000
  -6  17  -1       1    1160                                                          80    1.87    0.00  1.0000
  -6  17   1    2978    1120                                                        3920    1.88    0.00  1.0000
  -5  17  -1    2783    1150                                                        2580    0.46    0.00  1.0000
  -4  17  -1    2040    1030                                                        1670    1.01    0.00  1.0000
  -4  17   1    3762     890                                                        3250    1.01    0.00  1.0000
  -3  17  -1    1855     980                                                        1690   -0.46    0.00  1.0000
  -3  17   1    2003     780                                                        1830   -0.46    0.00  1.0000
  -2  17  -1    2666     930                                                        2440    0.52    0.00  1.0000
  -2  17   1    1584     680                                                        1410    0.53    0.00  1.0000
  -1  17  -1    1322    1190                                                        1770    1.34    0.00  1.0000
   0  17  -1    2513     940                                                        1730    1.99    0.00  1.0000
   1  17  -1   19293    1730                                                       19038   -0.21    0.00  1.0000
   2  17  -1     239     880                                                         430    1.23    0.00  1.0000
   3  17  -1    1776    1000                                                        1920    0.39    0.00  1.0000
   4  17  -1     619    1030                                                         440    0.91    0.00  1.0000
   5  17  -1       3    1080                                                         610   -5.37    0.00  1.0000
   7  17  -1    3411    1380                                                        5099   -3.04    0.00  1.0000
   8  17  -1    1411    1420                                                         770    2.30    0.00  1.0000
   9  17  -1    1430    1630                                                        1100   -1.09    0.00  1.0000
  10  17  -1    3849    1680                                                        2450    2.93    0.00  1.0000
 -17  11  -1    2167    1790                                                        2170   -0.01    0.00  1.0000
 -17  12  -1    6126    1940                                                        5079    1.64    0.00  1.0000
 -17  13  -1     267    1940                                                        1250    4.45    0.00  1.0000
 -17  14  -1    1530    1990                                                         880   -2.21    0.00  1.0000
 -12  18  -1      14    1630                                                        -320   -0.86    0.00  1.0000
 -12  18   1     265    1440                                                         400   -0.87    0.00  1.0000
 -11  18  -1     850    1590                                                        1300    1.61    0.00  1.0000
 -11  18   1      48    1310                                                        -150    1.62    0.00  1.0000
 -10  18  -1       1    1420                                                       -1210    0.20    0.00  1.0000
 -10  18   1       1    1360                                                        -840    0.20    0.00  1.0000
  -9  18  -1    3033    1360                                                        2600   -0.95    0.00  1.0000
  -9  18   1      17    1290                                                        -720   -0.96    0.00  1.0000
  -8  18  -1    9017    1500                                                        8979    0.05    0.00  1.0000
  -8  18   1    6334    1450                                                        6299    0.05    0.00  1.0000
  -7  18  -1     208    1220                                                         280   -0.54    0.00  1.0000
  -7  18   1    2301    1890                                                        2530   -0.54    0.00  1.0000
  -6  18  -1   13410    1620                                                       14829    1.40    0.00  1.0000
  -6  18   1   12575    1480                                                       13959    1.40    0.00  1.0000
  -5  18  -1     864    1140                                                         800   -0.26    0.00  1.0000
  -5  18   1     146     970                                                         120   -0.26    0.00  1.0000
  -4  18  -1    1665    1040                                                        1460    0.61    0.00  1.0000
  -4  18   1    2766     910                                                        2500    0.61    0.00  1.0000
  -3  18  -1    5342    1110                                                        4490   -1.42    0.00  1.0000
  -3  18   1    8225     950                                                        7159   -1.42    0.00  1.0000
  -2  18  -1    2362     920                                                        2740   -0.88    0.00  1.0000
  -2  18   1      14     680                                                        -480   -0.88    0.00  1.0000
  -1  18  -1    3240    1000                                                        5199   -3.55    0.00  1.0000
   0  18  -1   16252    1540                                                       13319   -2.82    0.00  1.0000
   2  18  -1    2279    1110                                                        3300   -2.27    0.00  1.0000
   3  18  -1    2990    1180                                                        3880   -1.78    0.00  1.0000
   4  18  -1     734    1440                                                        1690    3.28    0.00  1.0000
   5  18  -1     356    1770                                                         580   -1.22    0.00  1.0000
   6  18  -1     445    1250                                                         870    1.96    0.00  1.0000
   7  18  -1      13    1310                                                        -930   -0.85    0.00  1.0000
   8  18  -1     109    1550                                                         740    3.92    0.00  1.0000
   9  18  -1      58    1650                                                       -3670   -1.79    0.00  1.0000
 -18  11  -1    1374    1800                                                        2070    1.97    0.00  1.0000
 -18  12  -1     154    1780                                                       -2630    2.90    0.00  1.0000
 -11  19  -1     379    1570                                                         820    2.14    0.00  1.0000
 -11  19   1     139    1440                                                         440    2.14    0.00  1.0000
 -10  19  -1      86    1390                                                         240   -1.46    0.00  1.0000
 -10  19   1      39    1350                                                       -1380   -1.45    0.00  1.0000
  -9  19  -1    6907    1600                                                        8599   -2.25    0.00  1.0000
  -9  19   1    5396    1580                                                        6909   -2.26    0.00  1.0000
  -8  19  -1   12276    1640                                                       11589   -0.74    0.00  1.0000
  -8  19   1   10579    1580                                                        9949   -0.73    0.00  1.0000
  -7  19  -1    2504    1280                                                        2710   -0.47    0.00  1.0000
  -7  19   1    2118    1320                                                        2310   -0.48    0.00  1.0000
  -6  19  -1    3831    1270                                                        3860   -0.05    0.00  1.0000
  -6  19   1    5089    1160                                                        5119   -0.05    0.00  1.0000
  -5  19  -1      41    1090                                                         320   -2.69    0.00  1.0000
  -5  19   1     123     990                                                         510   -2.69    0.00  1.0000
  -4  19  -1     353    1080                                                         190   -1.17    0.00  1.0000
  -4  19   1    2752     910                                                        2250   -1.17    0.00  1.0000
  -3  19  -1     913    1020                                                        1540   -2.11    0.00  1.0000
  -3  19   1    1380     820                                                        2130   -2.11    0.00  1.0000
  -2  19  -1     997     940                                                        1080    0.30    0.00  1.0000
  -2  19   1     212     750                                                         250    0.30    0.00  1.0000
  -1  19  -1     650     960                                                        1220   -2.21    0.00  1.0000
   0  19  -1     275     990                                                         290   -0.11    0.00  1.0000
   1  19  -1     566    1010                                                        1470   -3.40    0.00  1.0000
   2  19  -1    9701    1260                                                        9939   -0.28    0.00  1.0000
   3  19  -1   16607    1640                                                       16608    0.00    0.00  1.0000
   4  19  -1     316    1170                                                        2100    6.56    0.00  1.0000
   5  19  -1   13853    1480                                                       11649    2.28    0.00  1.0000
   6  19  -1    2916    1360                                                        4590    3.21    0.00  1.0000
   7  19  -1    2732    1440                                                        1630   -2.78    0.00  1.0000
   8  19  -1    4675    1730                                                        3830    1.52    0.00  1.0000
   9  19  -1     470    1780                                                       -2520   -5.07    0.00  1.0000
 -19  11  -1    1611    1970                                                        2580    2.49    0.00  1.0000
  -9  20  -1      61    1360                                                       -1270   -1.83    0.00  1.0000
  -9  20   1      62    1350                                                        -600   -1.84    0.00  1.0000
  -8  20  -1    1286    1360                                                        1480    0.61    0.00  1.0000
  -8  20   1    1554    1210                                                        1770    0.62    0.00  1.0000
  -7  20  -1    4186    1400                                                        5049    1.49    0.00  1.0000
  -7  20   1    2549    1200                                                        3230    1.48    0.00  1.0000
  -6  20  -1   11278    1470                                                       10369    1.02    0.00  1.0000
  -6  20   1   10606    1360                                                        9729    1.02    0.00  1.0000
  -5  20  -1    6636    1240                                                        5529   -1.66    0.00  1.0000
  -5  20   1    7277    1120                                                        6119   -1.66    0.00  1.0000
  -4  20  -1     752    1040                                                         720    0.14    0.00  1.0000
  -4  20   1       0     960                                                        -340    0.13    0.00  1.0000
  -3  20  -1    5888    1170                                                        6249   -0.54    0.00  1.0000
  -2  20  -1    5614    1140                                                        6649    1.55    0.00  1.0000
  -1  20  -1     110    1080                                                         180   -0.68    0.00  1.0000
   0  20  -1    1370    1080                                                         920    1.56    0.00  1.0000
   1  20  -1    5705    1130                                                        5109   -0.95    0.00  1.0000
   2  20  -1    3256    1140                                                        3610    0.71    0.00  1.0000
   3  20  -1     790    1140                                                         610    0.80    0.00  1.0000
   4  20  -1      31    1170                                                        1360    7.31    0.00  1.0000
   5  20  -1     827    1320                                                        2070    3.91    0.00  1.0000
   6  20  -1     248    1380                                                        -110    3.68    0.00  1.0000
   7  20  -1     511    1620                                                        1050   -2.29    0.00  1.0000
   8  20  -1     155    1720                                                       -1270    2.91    0.00  1.0000
   9  20  -1     162    1950                                                       -1900   -2.97    0.00  1.0000
  -6  21  -1    1101    1200                                                        1120    0.07    0.00  1.0000
  -6  21   1       0    1110                                                        -170    0.06    0.00  1.0000
  -5  21  -1     541    1140                                                         480   -0.31    0.00  1.0000
  -4  21  -1     212    1100                                                         550    2.08    0.00  1.0000
  -3  21  -1    2725    1050                                                        1890    2.04    0.00  1.0000
  -2  21  -1    5052    1250                                                        7139    3.14    0.00  1.0000
  -1  21  -1    2326    1130                                                        1740    1.52    0.00  1.0000
   0  21  -1     156    1100                                                        -160    2.92    0.00  1.0000
   1  21  -1    4687    1230                                                        5539    1.39    0.00  1.0000
   2  21  -1    1729    1190                                                        1410    0.94    0.00  1.0000
   3  21  -1   12648    1640                                                       13849   -1.22    0.00  1.0000
   4  21  -1    6068    1430                                                        7219    1.65    0.00  1.0000
   5  21  -1     130    1380                                                         290   -1.32    0.00  1.0000
   6  21  -1     128    1460                                                         250   -1.05    0.00  1.0000
  -2  22  -1     270    1220                                                        1530    5.30    0.00  1.0000
  -1  22  -1    1139    1210                                                        2010    2.59    0.00  1.0000
   0  22  -1    6281    1270                                                        6239    0.06    0.00  1.0000
   1  22  -1      80    1140                                                        -840   -2.10    0.00  1.0000
   2  22  -1    1567    1270                                                        2600   -2.67    0.00  1.0000
   0   0  -2   93658   11819                                                      198790   32.68    0.00  1.0000
  -1   0  -2   12219     800                                                        1580   16.55    0.00  1.0000
   1   0  -2   12497     730                                                        1680   16.55    0.00  1.0000
   0  -1  -2    7966     670                                                         340   16.55    0.00  1.0000
   0   1  -2    8550     740                                                         470   16.55    0.00  1.0000
   1   1  -2       0     760                                                        1500    9.02    0.00  1.0000
  -1  -1  -2      38     730                                                        1050    9.02    0.00  1.0000
  -1   1  -2       2     830                                                        1380    9.02    0.00  1.0000
   1  -1  -2     878     650                                                          80    9.02    0.00  1.0000
  -2  -1  -2    1262     870                                                        6469  -10.50    0.00  1.0000
   2   1  -2     600     830                                                        4820  -10.50    0.00  1.0000
   1  -2  -2    1041     730                                                        5959  -10.50    0.00  1.0000
  -1   2  -2     570     950                                                        4730  -10.50    0.00  1.0000
  -2   0  -2   71963    3000                                                       46435  -12.34    0.00  1.0000
   2   0  -2   70543    2950                                                       45285  -12.34    0.00  1.0000
   0  -2  -2   71891    2890                                                       46375  -12.34    0.00  1.0000
   0   2  -2   71655    3010                                                       46175  -12.34    0.00  1.0000
   2  -1  -2  115222    7279                                                      121098   -2.00    0.00  1.0000
   1   2  -2  114653    7299                                                      120508   -2.00    0.00  1.0000
  -2   1  -2  115389    7329                                                      121268   -2.00    0.00  1.0000
  -1  -2  -2  117059    7269                                                      122988   -2.00    0.00  1.0000
   2  -2  -2    2674     740                                                        4020   -2.73    0.00  1.0000
  -2   2  -2    2364     920                                                        3640   -2.74    0.00  1.0000
  -2  -2  -2    1613     750                                                        2690   -2.74    0.00  1.0000
   2   2  -2    1973     810                                                        3150   -2.74    0.00  1.0000
  -2   3  -2    5396     970                                                        3520    3.30    0.00  1.0000
   3   2  -2    5609     830                                                        3690    3.31    0.00  1.0000
  -3  -2  -2    7441     870                                                        5199    3.31    0.00  1.0000
   2  -3  -2    8723     780                                                        6279    3.31    0.00  1.0000
   3   1  -2    1319     770                                                        -480   -8.49    0.00  1.0000
   1  -3  -2    4894     600                                                        1130   -8.49    0.00  1.0000
  -1   3  -2    3144     850                                                         390   -8.49    0.00  1.0000
  -3  -1  -2    2321     800                                                         140   -8.49    0.00  1.0000
   0   3  -2   12575     880                                                        1840  -16.19    0.00  1.0000
   0  -3  -2   14619     610                                                        2670  -16.18    0.00  1.0000
  -3   0  -2   14693     880                                                        2700  -16.19    0.00  1.0000
   3   0  -2   10996     780                                                        1270  -16.18    0.00  1.0000
  -3   1  -2   12041    1260                                                       12349    0.33    0.00  1.0000
   3  -1  -2   12749    1290                                                       13069    0.33    0.00  1.0000
  -1  -3  -2   10952    1100                                                       11249    0.33    0.00  1.0000
   1   3  -2   12661    1170                                                       12979    0.33    0.00  1.0000
  -3   2  -2    3433    1140                                                        7319    6.30    0.00  1.0000
   3  -2  -2    5190    1030                                                        9799    6.30    0.00  1.0000
   2   3  -2    3653    1000                                                        7639    6.30    0.00  1.0000
  -2  -3  -2    4843     890                                                        9319    6.30    0.00  1.0000
  -3  -3  -2   86183    7109                                                      118138   11.72    0.00  1.0000
   3  -3  -2   86986    7149                                                      119058   11.71    0.00  1.0000
   3   3  -2   87151    7159                                                      119248   11.71    0.00  1.0000
  -3   3  -2   86517    7209                                                      118528   11.72    0.00  1.0000
  -3   4  -2    2071     990                                                        1850    0.58    0.00  1.0000
  -4  -3  -2    2026     830                                                        1810    0.58    0.00  1.0000
   3  -4  -2    3716     920                                                        3420    0.58    0.00  1.0000
   4   3  -2    1358     890                                                        1180    0.58    0.00  1.0000
   2  -4  -2   56736    3510                                                       56184    0.27    0.00  1.0000
  -4  -2  -2   58659    3580                                                       58104    0.27    0.00  1.0000
  -2   4  -2   56894    3640                                                       56344    0.27    0.00  1.0000
   4   2  -2   54812    3580                                                       54265    0.27    0.00  1.0000
   4   1  -2    3410     820                                                        3330   -0.16    0.00  1.0000
   1  -4  -2    1858     620                                                        1800   -0.16    0.00  1.0000
  -4  -1  -2    1360     890                                                        1310   -0.16    0.00  1.0000
  -1   4  -2    1503     890                                                        1450   -0.16    0.00  1.0000
  -4   0  -2    3390    1060                                                        6979   -5.92    0.00  1.0000
   4   0  -2    3076     960                                                        6529   -5.92    0.00  1.0000
   0   4  -2    3833    1030                                                        7609   -5.92    0.00  1.0000
   0  -4  -2    3548     730                                                        7209   -5.92    0.00  1.0000
  -1  -4  -2   82141    4290                                                       71403    4.53    0.00  1.0000
   4  -1  -2   79766    4430                                                       69203    4.53    0.00  1.0000
   1   4  -2   82660    4410                                                       71903    4.53    0.00  1.0000
  -4   1  -2   82645    4480                                                       71873    4.53    0.00  1.0000
  -2  -4  -2   41309    2810                                                       46045    2.65    0.00  1.0000
   2   4  -2   39755    2950                                                       44416    2.66    0.00  1.0000
  -4   2  -2   38597    3070                                                       43186    2.65    0.00  1.0000
   4  -2  -2   41332    3010                                                       46075    2.65    0.00  1.0000
  -4   3  -2    1751    1020                                                         640    3.87    0.00  1.0000
  -3  -4  -2     274     660                                                        -220    3.87    0.00  1.0000
   4  -3  -2    2091     980                                                         850    3.87    0.00  1.0000
   3   4  -2     875     780                                                         170    3.87    0.00  1.0000
   4   4  -2   31504    2890                                                       44196   -7.65    0.00  1.0000
  -4  -4  -2   30421    2810                                                       42916   -7.65    0.00  1.0000
  -4   4  -2   31123    3010                                                       43756   -7.66    0.00  1.0000
   4  -4  -2   30535    2960                                                       43046   -7.65    0.00  1.0000
  -5  -4  -2   36142    2110                                                       30347   -3.72    0.00  1.0000
  -4   5  -2   35259    2300                                                       29537   -3.72    0.00  1.0000
   5   4  -2   34698    2200                                                       29027   -3.72    0.00  1.0000
  -5  -3  -2    4885     950                                                        6039    1.83    0.00  1.0000
  -3   5  -2    2915    1030                                                        3820    1.83    0.00  1.0000
   5   3  -2    3136     930                                                        4070    1.82    0.00  1.0000
   2  -5  -2    2244     840                                                        1030    3.57    0.00  1.0000
  -2   5  -2    1263     940                                                         410    3.58    0.00  1.0000
  -5  -2  -2     908     880                                                         220    3.58    0.00  1.0000
   5   2  -2    4065     880                                                        2350    3.57    0.00  1.0000
   5   1  -2   20446    2270                                                       30127    7.15    0.00  1.0000
  -5  -1  -2   21565    2270                                                       31487    7.15    0.00  1.0000
  -1   5  -2   20259    2240                                                       29897    7.15    0.00  1.0000
   1  -5  -2   20112    2010                                                       29727    7.15    0.00  1.0000
  -5   0  -2    2956    1010                                                        3240    0.60    0.00  1.0000
   0  -5  -2    3598     590                                                        3910    0.60    0.00  1.0000
   0   5  -2    2896     920                                                        3180    0.60    0.00  1.0000
   5   0  -2    4104    1000                                                        4440    0.60    0.00  1.0000
  -5   1  -2    8685    1110                                                        6769    2.55    0.00  1.0000
   5  -1  -2    8962    1140                                                        7009    2.56    0.00  1.0000
  -1  -5  -2    8905     640                                                        6959    2.56    0.00  1.0000
   1   5  -2    5886     930                                                        4330    2.55    0.00  1.0000
   5  -2  -2    5571    1260                                                        9749   -5.63    0.00  1.0000
  -2  -5  -2    5126     920                                                        9159   -5.63    0.00  1.0000
   2   5  -2    5301    1010                                                        9389   -5.63    0.00  1.0000
  -5   2  -2    5516    1230                                                        9679   -5.64    0.00  1.0000
  -3  -5  -2    9509    1130                                                       11789   -2.59    0.00  1.0000
   5  -3  -2   11975    1450                                                       14519   -2.59    0.00  1.0000
  -5   3  -2    9915    1420                                                       12239   -2.58    0.00  1.0000
   3   5  -2   10853    1190                                                       13279   -2.59    0.00  1.0000
   4   5  -2    4793    1120                                                       10259   -7.49    0.00  1.0000
  -5   4  -2    4899    1340                                                       10409   -7.49    0.00  1.0000
  -4  -5  -2    4891     990                                                       10399   -7.49    0.00  1.0000
  -5   5  -2       0    1060                                                         -80    0.02    0.00  1.0000
   5   5  -2    1523    1610                                                        1530    0.02    0.00  1.0000
  -5  -5  -2     847     780                                                         850    0.01    0.00  1.0000
   6   5  -2   34270    2760                                                       39436   -3.15    0.00  1.0000
  -5   6  -2   34446    2890                                                       39616   -3.14    0.00  1.0000
  -6  -5  -2   35065    2690                                                       40276   -3.14    0.00  1.0000
   6   4  -2     963    1050                                                        2300   -3.96    0.00  1.0000
  -4   6  -2     527    1020                                                        1590   -3.96    0.00  1.0000
  -6  -4  -2     498     930                                                        1540   -3.95    0.00  1.0000
  -6  -3  -2    9118    1140                                                        8419   -0.87    0.00  1.0000
  -3   6  -2    7973    1220                                                        7319   -0.87    0.00  1.0000
   6   2  -2    3169     990                                                        2180   -2.24    0.00  1.0000
  -2   6  -2    4343     970                                                        3170   -2.24    0.00  1.0000
  -6  -2  -2    2832     980                                                        1900   -2.25    0.00  1.0000
  -1   6  -2    1311     920                                                        1430   -0.37    0.00  1.0000
  -6  -1  -2    2488    1010                                                        2650   -0.37    0.00  1.0000
   1  -6  -2    2257     780                                                        2410   -0.37    0.00  1.0000
   6   1  -2    2878    1050                                                        3050   -0.37    0.00  1.0000
   0  -6  -2     193     560                                                        -360   -3.25    0.00  1.0000
   0   6  -2     192     860                                                        -150   -3.24    0.00  1.0000
   6   0  -2    1793     980                                                         810   -3.25    0.00  1.0000
  -6   0  -2     193     990                                                         -50   -3.25    0.00  1.0000
   1   6  -2   20939    1890                                                       24288    2.60    0.00  1.0000
   6  -1  -2   20941    2170                                                       24288    2.60    0.00  1.0000
  -6   1  -2   20118    2130                                                       23408    2.61    0.00  1.0000
  -1  -6  -2   21348    1570                                                       24728    2.60    0.00  1.0000
   6  -2  -2   11238    1380                                                        9049   -2.54    0.00  1.0000
  -2  -6  -2   10330     780                                                        8239   -2.54    0.00  1.0000
  -6   2  -2   13836    1300                                                       11399   -2.54    0.00  1.0000
   2   6  -2   11893    1070                                                        9639   -2.54    0.00  1.0000
   3   6  -2   12161    1230                                                       14759    2.62    0.00  1.0000
  -3  -6  -2    9979    1050                                                       12339    2.62    0.00  1.0000
  -6   4  -2    1066    1060                                                         790   -1.06    0.00  1.0000
  -4  -6  -2    1601     620                                                        1260   -1.06    0.00  1.0000
  -6   5  -2    6689    1380                                                       11169    5.59    0.00  1.0000
  -5  -6  -2    7482    1220                                                       12189    5.59    0.00  1.0000
   5   6  -2    7259    1260                                                       11909    5.59    0.00  1.0000
  -6  -6  -2   15165    1420                                                       14599   -0.54    0.00  1.0000
  -6   6  -2   14832    1590                                                       14269   -0.55    0.00  1.0000
   6   6  -2   15922    1410                                                       15338   -0.55    0.00  1.0000
   7   6  -2    5157    1160                                                        5319   -0.26    0.00  1.0000
  -6   7  -2    6428    1280                                                        6609   -0.26    0.00  1.0000
  -7  -5  -2    2543     930                                                        1930    1.52    0.00  1.0000
   7   5  -2    1966    1060                                                        1430    1.52    0.00  1.0000
  -5   7  -2    3451    1120                                                        2730    1.52    0.00  1.0000
  -7  -4  -2      43     960                                                         780    4.99    0.00  1.0000
   7   4  -2    1733    1090                                                        3970    5.00    0.00  1.0000
  -4   7  -2     498    1050                                                        1910    5.00    0.00  1.0000
  -3   7  -2    9052    1050                                                        4930    5.83    0.00  1.0000
   7   3  -2    7637    1160                                                        3900    5.83    0.00  1.0000
  -7  -3  -2    5115    1000                                                        2170    5.83    0.00  1.0000
  -7  -2  -2   44010    2930                                                       43546    0.26    0.00  1.0000
   7   2  -2   41930    3050                                                       41486    0.25    0.00  1.0000
   7   1  -2    1150    1180                                                         590   -2.25    0.00  1.0000
  -1   7  -2      92     890                                                        -190   -2.25    0.00  1.0000
  -7  -1  -2    1394    1060                                                         770   -2.24    0.00  1.0000
   7   0  -2    3274    1430                                                        6249   -5.10    0.00  1.0000
   0   7  -2    4202    1030                                                        7509   -5.10    0.00  1.0000
  -7   0  -2    2022    1200                                                        4460   -5.10    0.00  1.0000
  -7   1  -2   49831    3140                                                       44326    2.97    0.00  1.0000
   1   7  -2   49752    2940                                                       44246    2.97    0.00  1.0000
  -7   2  -2   42481    2880                                                       40556   -1.10    0.00  1.0000
   2   7  -2   41355    2710                                                       39456   -1.10    0.00  1.0000
  -7   3  -2   68170    4120                                                       62534    2.58    0.00  1.0000
   4   7  -2    2771     890                                                        2060   -1.69    0.00  1.0000
  -4  -7  -2    3765     600                                                        2930   -1.69    0.00  1.0000
  -7   4  -2    2443    1180                                                        1780   -1.69    0.00  1.0000
  -7   5  -2    1265    1200                                                        3460    5.44    0.00  1.0000
  -5  -7  -2    2571     770                                                        5469    5.43    0.00  1.0000
   5   7  -2    1400    1010                                                        3680    5.43    0.00  1.0000
  -7   6  -2   12704    1460                                                       10389    2.52    0.00  1.0000
  -6  -7  -2   13592    1120                                                       11199    2.51    0.00  1.0000
   6   7  -2   14574    1250                                                       12089    2.52    0.00  1.0000
  -7   7  -2   21979    2320                                                       23918    1.50    0.00  1.0000
   7   7  -2   21581    2100                                                       23498    1.49    0.00  1.0000
  -7   8  -2   44046    3090                                                       40146   -2.22    0.00  1.0000
   8   7  -2   46256    3100                                                       42266   -2.22    0.00  1.0000
   8   6  -2   10341    1570                                                       15858   -5.67    0.00  1.0000
  -6   8  -2    9076    1580                                                       14279   -5.66    0.00  1.0000
  -5   8  -2     786    1070                                                        2340   -4.76    0.00  1.0000
   8   5  -2     922    1210                                                        2570   -4.75    0.00  1.0000
   8   4  -2   72448    4590                                                       69913   -1.11    0.00  1.0000
  -4   8  -2   74356    4530                                                       71803   -1.10    0.00  1.0000
   8   3  -2    2164    1260                                                        2500   -0.81    0.00  1.0000
  -3   8  -2    1188     980                                                        1440   -0.81    0.00  1.0000
  -2   8  -2     994    1000                                                        2780   -4.96    0.00  1.0000
   8   2  -2     678    1330                                                        2230   -4.95    0.00  1.0000
  -8  -2  -2    3553    1120                                                        6529   -4.95    0.00  1.0000
  -8  -1  -2   97840    5289                                                       85051   -4.95    0.00  1.0000
   8   1  -2   98153    5419                                                       85361   -4.94    0.00  1.0000
  -1   8  -2   95337    5239                                                       82732   -4.94    0.00  1.0000
  -8   0  -2   10148    1600                                                       15078   -5.16    0.00  1.0000
   8   0  -2   13057    1700                                                       18578   -5.15    0.00  1.0000
   0   8  -2    9446    1380                                                       14219   -5.16    0.00  1.0000
  -8   1  -2     801    1180                                                        2550    5.19    0.00  1.0000
   1   8  -2     147     810                                                        1180    5.19    0.00  1.0000
   2   8  -2    2127     860                                                        1010    3.35    0.00  1.0000
  -8   2  -2    3438    1210                                                        1960    3.36    0.00  1.0000
  -8   3  -2    1297    1230                                                        3330    5.07    0.00  1.0000
   3   8  -2     470     860                                                         -50    5.07    0.00  1.0000
   4   8  -2    1992     900                                                        2430   -1.09    0.00  1.0000
  -8   4  -2    3887    1210                                                        4490   -1.09    0.00  1.0000
   5   8  -2     270     940                                                         830    2.89    0.00  1.0000
  -5  -8  -2     547     640                                                        1280    2.90    0.00  1.0000
  -8   5  -2      78    1150                                                         450    2.89    0.00  1.0000
   6   8  -2   46206    2740                                                       39646    3.70    0.00  1.0000
  -6  -8  -2   44994    2540                                                       38536    3.70    0.00  1.0000
  -8   6  -2   46365    3430                                                       39806    3.70    0.00  1.0000
   7   8  -2    1814    1080                                                        3370    3.61    0.00  1.0000
  -8   7  -2    1602    1270                                                        3080    3.62    0.00  1.0000
   8   8  -2    2485    1240                                                        3870    2.89    0.00  1.0000
  -8   8  -2    5043    1350                                                        6949    2.89    0.00  1.0000
   9   8  -2   18440    1860                                                       19468   -0.87    0.00  1.0000
  -8   9  -2   19693    1930                                                       20748   -0.87    0.00  1.0000
   9   7  -2   19345    2320                                                       23558   -3.37    0.00  1.0000
  -7   9  -2   21580    2340                                                       26017   -3.37    0.00  1.0000
   9   6  -2    1178    1270                                                        2750   -4.23    0.00  1.0000
  -6   9  -2     327    1140                                                       -1160   -4.23    0.00  1.0000
  -5   9  -2    6082    1270                                                        8319   -3.09    0.00  1.0000
  -4   9  -2   22451    1960                                                       21268   -0.94    0.00  1.0000
   9   4  -2   23258    2090                                                       22058   -0.93    0.00  1.0000
  -3   9  -2   31413    2470                                                       31857   -0.29    0.00  1.0000
   9   3  -2   34077    2780                                                       34537   -0.29    0.00  1.0000
  -2   9  -2    1708     970                                                        2260   -1.45    0.00  1.0000
   9   2  -2    2484    1430                                                        3140   -1.45    0.00  1.0000
   9   1  -2   36244    2880                                                       37166    0.56    0.00  1.0000
  -1   9  -2   34456    2550                                                       35366    0.57    0.00  1.0000
   0   9  -2    5778    1070                                                        7139   -1.98    0.00  1.0000
  -9   0  -2    8866    1330                                                       10529   -1.98    0.00  1.0000
   1   9  -2   13295    1180                                                       11639    1.73    0.00  1.0000
  -9   1  -2   13413    1480                                                       11749    1.73    0.00  1.0000
  -9   2  -2  131126    7629                                                      125947   -1.69    0.00  1.0000
   2   9  -2  127869    7509                                                      122758   -1.69    0.00  1.0000
   3   9  -2    3403     950                                                        4310   -1.71    0.00  1.0000
  -9   3  -2    4764    1330                                                        5829   -1.71    0.00  1.0000
   4   9  -2    9277    1360                                                       15168   -6.27    0.00  1.0000
  -9   4  -2    8859    2620                                                       14639   -6.28    0.00  1.0000
   5   9  -2   93747    5159                                                       83212   -4.14    0.00  1.0000
  -9   5  -2   93184    5329                                                       82692   -4.14    0.00  1.0000
  -9   6  -2    2427    1270                                                        2690    0.61    0.00  1.0000
   6   9  -2    2266     980                                                        2520    0.61    0.00  1.0000
  -6  -9  -2    3499     730                                                        3810    0.60    0.00  1.0000
   7   9  -2   55777    3880                                                       49835    3.02    0.00  1.0000
  -9   7  -2   52528    3470                                                       46755    3.03    0.00  1.0000
  -9   8  -2    1611    1340                                                        3720    4.87    0.00  1.0000
   8   9  -2    1004    1170                                                        2760    4.87    0.00  1.0000
  -9   9  -2    3565    1350                                                        4090    0.99    0.00  1.0000
   9   9  -2    2156    1270                                                        2570    1.00    0.00  1.0000
  -9  10  -2    2286    1370                                                        3140    1.92    0.00  1.0000
  10   9  -2      68    1330                                                         -20    1.92    0.00  1.0000
  -8  10  -2     292    1280                                                         410    0.74    0.00  1.0000
  10   8  -2      10    1340                                                         -70    0.74    0.00  1.0000
  10   7  -2    1364    1350                                                        1530    0.51    0.00  1.0000
  -7  10  -2    1992    1270                                                        2190    0.51    0.00  1.0000
  10   6  -2   14623    1760                                                       13899   -0.71    0.00  1.0000
  -6  10  -2   13959    1550                                                       13249   -0.71    0.00  1.0000
  -5  10  -2    1080    1130                                                        1990   -2.75    0.00  1.0000
  10   5  -2    3235    1510                                                        4710   -2.75    0.00  1.0000
  10   4  -2   38346    3470                                                       46695   -4.74    0.00  1.0000
  -4  10  -2   38673    3240                                                       47055   -4.74    0.00  1.0000
  -3  10  -2   30252    2100                                                       24028   -4.42    0.00  1.0000
  10   3  -2   33171    2490                                                       26627   -4.43    0.00  1.0000
  -2  10  -2   12385    1450                                                       14949   -2.57    0.00  1.0000
  -1  10  -2   14792    1400                                                       14369    0.41    0.00  1.0000
   0  10  -2    3020     940                                                        4100   -2.12    0.00  1.0000
   1  10  -2    2121     860                                                        1530   -1.62    0.00  1.0000
   2  10  -2    7172    1050                                                        7469   -0.41    0.00  1.0000
 -10   3  -2    5512    1300                                                        3780    2.98    0.00  1.0000
   3  10  -2    4852     930                                                        3240    2.98    0.00  1.0000
 -10   4  -2    4037    1310                                                        3340    1.34    0.00  1.0000
   4  10  -2    3341     890                                                        2710    1.34    0.00  1.0000
   5  10  -2     394     920                                                         200   -1.33    0.00  1.0000
 -10   5  -2      32    1350                                                       -1590   -1.33    0.00  1.0000
   6  10  -2    1770    1020                                                        2000   -0.62    0.00  1.0000
 -10   6  -2    2612    1340                                                        2890   -0.62    0.00  1.0000
   7  10  -2   17497    1770                                                       17658    0.14    0.00  1.0000
 -10   7  -2   19583    1910                                                       19748    0.14    0.00  1.0000
   8  10  -2    2034    1140                                                        2720    1.65    0.00  1.0000
 -10   8  -2    1184    1390                                                        1720    1.65    0.00  1.0000
 -10   9  -2       0    1380                                                       -1480   -0.13    0.00  1.0000
   9  10  -2       0    1220                                                         -50   -0.12    0.00  1.0000
  10  10  -2   12026    1610                                                       11369    0.71    0.00  1.0000
 -10  10  -2    9931    1640                                                        9329    0.72    0.00  1.0000
  11  10  -2     724    1520                                                        1200    1.81    0.00  1.0000
 -10  11  -2     921    1450                                                        1450    1.81    0.00  1.0000
  -9  11  -2   18414    2060                                                       20368    1.64    0.00  1.0000
  11   9  -2   17286    2120                                                       19188    1.65    0.00  1.0000
  -8  11  -2    2414    1340                                                        2980   -1.27    0.00  1.0000
  11   8  -2      30    1550                                                       -1250   -1.27    0.00  1.0000
  -7  11  -2      13    1220                                                        -120    0.85    0.00  1.0000
  11   7  -2    1980    1580                                                        1670    0.85    0.00  1.0000
  11   6  -2    7657    1670                                                        9749    2.63    0.00  1.0000
  -6  11  -2    6317    1330                                                        8229    2.63    0.00  1.0000
  -5  11  -2    2218    1090                                                        3160    2.13    0.00  1.0000
  11   5  -2    2346    1440                                                        3310    2.13    0.00  1.0000
  -4  11  -2    4994    1120                                                        4790    0.34    0.00  1.0000
  -3  11  -2   26363    2400                                                       26897    0.38    0.00  1.0000
  -2  11  -2    8019    1260                                                       10479    3.00    0.00  1.0000
  -1  11  -2   15670    1310                                                       12849    2.76    0.00  1.0000
   0  11  -2   83237    5109                                                       82112   -0.46    0.00  1.0000
   1  11  -2   12110    1530                                                       15828   -3.68    0.00  1.0000
   2  11  -2    7603    1110                                                        8989   -1.78    0.00  1.0000
   3  11  -2    9748    1180                                                       10819    1.24    0.00  1.0000
 -11   3  -2   10239    1570                                                       11339    1.24    0.00  1.0000
 -11   4  -2    4086    1400                                                        4750    1.17    0.00  1.0000
   4  11  -2    3981     960                                                        4640    1.17    0.00  1.0000
   5  11  -2   25564    2110                                                       26777   -0.88    0.00  1.0000
 -11   5  -2   22854    2440                                                       24008   -0.88    0.00  1.0000
   6  11  -2    1890    1000                                                        2170   -0.73    0.00  1.0000
 -11   6  -2    1113    1460                                                        1330   -0.72    0.00  1.0000
   7  11  -2    1102    1050                                                        1600    1.59    0.00  1.0000
 -11   7  -2     593    1390                                                         970    1.59    0.00  1.0000
   8  11  -2      16    1150                                                         250    2.77    0.00  1.0000
 -11   8  -2    1027    1390                                                        1930    2.78    0.00  1.0000
 -11   9  -2    8384    1570                                                        6389    2.72    0.00  1.0000
   9  11  -2    5537    1330                                                        3940    2.72    0.00  1.0000
 -11  10  -2      30    1480                                                        -570    1.28    0.00  1.0000
  10  11  -2     859    1390                                                        1210    1.28    0.00  1.0000
 -11  11  -2     644    1520                                                         590    0.25    0.00  1.0000
  11  11  -2       1    1570                                                         -40    0.25    0.00  1.0000
 -11  12  -2    6326    1590                                                        4890   -2.25    0.00  1.0000
  12  11  -2    1203    1690                                                         630   -2.24    0.00  1.0000
 -10  12  -2    1569    1510                                                        1300    0.83    0.00  1.0000
  12  10  -2    3188    1700                                                        2800    0.83    0.00  1.0000
  -9  12  -2    4584    1470                                                        3630    1.74    0.00  1.0000
  12   9  -2    5018    1580                                                        4020    1.74    0.00  1.0000
  -8  12  -2    3211    1390                                                        2440   -1.70    0.00  1.0000
  12   8  -2    4289    1580                                                        3390   -1.70    0.00  1.0000
  -7  12  -2   28114    2380                                                       27587    0.37    0.00  1.0000
  -6  12  -2     147    1180                                                         600    2.89    0.00  1.0000
  -5  12  -2    7029    1220                                                        5709    1.94    0.00  1.0000
  -4  12  -2    6503    1200                                                        6439   -0.09    0.00  1.0000
  -3  12  -2    9374    1330                                                       11609   -2.55    0.00  1.0000
  -2  12  -2    1455    1060                                                        1610   -0.46    0.00  1.0000
  -1  12  -2    4003    1050                                                        2720   -2.60    0.00  1.0000
   0  12  -2    7189    1100                                                        8789   -2.10    0.00  1.0000
   1  12  -2   14183    1230                                                       11819   -2.43    0.00  1.0000
   2  12  -2    2057     910                                                        1520    1.49    0.00  1.0000
 -12   3  -2    5232    1540                                                        8219    4.28    0.00  1.0000
   3  12  -2    8019    1220                                                       11639    4.29    0.00  1.0000
 -12   4  -2    5194    1540                                                        8139    4.24    0.00  1.0000
   5  12  -2      14     960                                                         370    3.62    0.00  1.0000
 -12   5  -2     239    1360                                                       -2820    3.62    0.00  1.0000
   6  12  -2    5785    1140                                                        6409    0.93    0.00  1.0000
 -12   6  -2    4720    1530                                                        5289    0.94    0.00  1.0000
 -12   7  -2    5879    1590                                                        5339    0.84    0.00  1.0000
   7  12  -2    1969    1120                                                        1660    0.85    0.00  1.0000
 -12   8  -2    2552    1550                                                        2820   -0.61    0.00  1.0000
   8  12  -2    1955    1220                                                        2190   -0.60    0.00  1.0000
 -12   9  -2     640    1490                                                         780    0.62    0.00  1.0000
   9  12  -2    2974    1310                                                        3270    0.62    0.00  1.0000
 -12  10  -2    7615    1680                                                        6879   -1.01    0.00  1.0000
  10  12  -2    6697    1530                                                        6009   -1.01    0.00  1.0000
 -12  11  -2    1007    1580                                                         310   -3.30    0.00  1.0000
  11  12  -2     200    1560                                                        -980   -3.31    0.00  1.0000
  12  12  -2     662    1790                                                        2250   -5.07    0.00  1.0000
 -12  12  -2     268    1610                                                        1450   -5.07    0.00  1.0000
 -12  13  -2       0    1610                                                        -560    0.13    0.00  1.0000
 -11  13  -2       0    1550                                                        -790   -0.08    0.00  1.0000
 -10  13  -2    1374    1500                                                        1000    1.27    0.00  1.0000
  -9  13  -2     481    1420                                                        1040    2.41    0.00  1.0000
  -8  13  -2    1627    1320                                                        2210   -1.56    0.00  1.0000
  -7  13  -2    4891    1300                                                        3620   -2.28    0.00  1.0000
  -6  13  -2    3897    1240                                                        4050    0.28    0.00  1.0000
  -5  13  -2    1029    1110                                                        1200    0.60    0.00  1.0000
  -4  13  -2   19865    1700                                                       17708    1.84    0.00  1.0000
  -3  13  -2   13756    1400                                                       13139   -0.62    0.00  1.0000
  -3  13   2   12377    1180                                                       11799   -0.61    0.00  1.0000
  -2  13  -2    4888    1080                                                        3820    1.90    0.00  1.0000
  -1  13  -2   11107    1270                                                       11529   -0.46    0.00  1.0000
   0  13  -2    4938     980                                                        5929    1.57    0.00  1.0000
   1  13  -2   11604    1200                                                       10219    1.55    0.00  1.0000
   2  13  -2      48     880                                                        -310    1.63    0.00  1.0000
   3  13  -2     384     900                                                         330    0.33    0.00  1.0000
 -13   4  -2   18044    2070                                                       20078   -1.72    0.00  1.0000
   4  13  -2   19263    1820                                                       21368   -1.73    0.00  1.0000
 -13   5  -2    1127    1470                                                        1260    0.45    0.00  1.0000
   5  13  -2    1239    1000                                                        1380    0.46    0.00  1.0000
 -13   6  -2    3705    1540                                                        3480   -0.44    0.00  1.0000
   6  13  -2    8378    1200                                                        8039   -0.44    0.00  1.0000
   7  13  -2       7    1100                                                        -350    0.60    0.00  1.0000
 -13   7  -2       7    1570                                                        -190    0.60    0.00  1.0000
   8  13  -2    1902    1220                                                        1850    0.14    0.00  1.0000
 -13   8  -2    2318    1570                                                        2260    0.14    0.00  1.0000
 -13   9  -2    5025    1720                                                        6889    2.83    0.00  1.0000
   9  13  -2    5819    1480                                                        7809    2.83    0.00  1.0000
  10  13  -2    2121    1530                                                        1320    2.27    0.00  1.0000
 -13  10  -2      94    1590                                                        -500    2.27    0.00  1.0000
 -13  11  -2   17814    2180                                                       18598   -0.68    0.00  1.0000
  11  13  -2   17205    2130                                                       17978   -0.68    0.00  1.0000
 -13  12  -2    1681    1690                                                        1190   -1.52    0.00  1.0000
  12  13  -2     947    1800                                                         590   -1.51    0.00  1.0000
 -13  13  -2    1511    1700                                                         580    3.46    0.00  1.0000
 -13  14  -2     104    1750                                                        1640    7.08    0.00  1.0000
 -12  14  -2     613    1760                                                        1560    3.45    0.00  1.0000
 -11  14  -2       0    1590                                                        -140   -0.15    0.00  1.0000
 -10  14  -2    1523    1550                                                        1990   -1.31    0.00  1.0000
  -9  14  -2    7381    1580                                                        7879    0.67    0.00  1.0000
  -8  14  -2     928    1310                                                         730   -0.81    0.00  1.0000
  -7  14  -2     270    1270                                                         850   -2.97    0.00  1.0000
  -6  14  -2      29    1160                                                       -1820   -1.26    0.00  1.0000
  -5  14  -2    1899    1200                                                        2500   -1.50    0.00  1.0000
  -4  14  -2    9160    1320                                                        9769    0.73    0.00  1.0000
  -4  14   2    7386     980                                                        7929    0.73    0.00  1.0000
  -3  14  -2      68    1010                                                        -220   -1.92    0.00  1.0000
  -3  14   2    1409     660                                                         860   -1.92    0.00  1.0000
  -2  14  -2    1537    1010                                                        1690    0.44    0.00  1.0000
  -1  14  -2    3115     960                                                        2670   -0.97    0.00  1.0000
   0  14  -2    3439     940                                                        3630    0.38    0.00  1.0000
   1  14  -2    5234    1040                                                        5279   -0.07    0.00  1.0000
   2  14  -2    6612    1060                                                        5779   -1.24    0.00  1.0000
   3  14  -2     999     900                                                         650   -1.43    0.00  1.0000
   4  14  -2    3115    1030                                                        4060   -1.85    0.00  1.0000
   5  14  -2       5    1010                                                        -170    0.50    0.00  1.0000
 -14   5  -2    1735    1540                                                        1560    0.50    0.00  1.0000
 -14   6  -2      58    1520                                                        -510   -1.79    0.00  1.0000
   6  14  -2     418    1070                                                         790   -1.79    0.00  1.0000
   7  14  -2     346    1300                                                        1280   -4.02    0.00  1.0000
 -14   7  -2     510    1660                                                        1580   -4.01    0.00  1.0000
   8  14  -2    3363    1280                                                        1270   -5.22    0.00  1.0000
 -14   8  -2     981    1610                                                          80   -5.23    0.00  1.0000
   9  14  -2     381    1360                                                         870   -2.33    0.00  1.0000
 -14   9  -2    4006    1790                                                        5369   -2.33    0.00  1.0000
  10  14  -2    5502    1630                                                        5059    0.71    0.00  1.0000
 -14  10  -2    5019    1730                                                        4600    0.71    0.00  1.0000
 -14  11  -2    8781    1940                                                        9529    0.91    0.00  1.0000
  11  14  -2    7230    1850                                                        7909    0.91    0.00  1.0000
  12  14  -2     610    1840                                                        1420    3.04    0.00  1.0000
 -14  12  -2    1775    1760                                                        3040    3.04    0.00  1.0000
 -14  13  -2     146    1770                                                        1190    5.24    0.00  1.0000
 -14  14  -2     840    1780                                                       -1350    6.78    0.00  1.0000
 -14  15  -2     640    1880                                                         590   -0.23    0.00  1.0000
 -13  15  -2    1959    1900                                                         900    3.33    0.00  1.0000
 -12  15  -2    2743    1830                                                        4460    3.37    0.00  1.0000
 -11  15  -2     121    1630                                                        -310    2.58    0.00  1.0000
 -10  15  -2     952    1540                                                        1530    1.93    0.00  1.0000
  -9  15  -2     675    1410                                                        1670    3.48    0.00  1.0000
  -8  15  -2   15478    1710                                                       12539    2.91    0.00  1.0000
  -7  15  -2     126    1270                                                         200   -0.68    0.00  1.0000
  -6  15  -2    1275    1220                                                        1490   -0.68    0.00  1.0000
  -6  15   2       8     930                                                        -410   -0.68    0.00  1.0000
  -5  15  -2     510    1160                                                         250   -1.58    0.00  1.0000
  -5  15   2      46     830                                                       -1830   -1.58    0.00  1.0000
  -4  15  -2    5731    1210                                                        4820    1.47    0.00  1.0000
  -4  15   2    6262     890                                                        5309    1.47    0.00  1.0000
  -3  15  -2       3    1030                                                        -490    0.41    0.00  1.0000
  -3  15   2    2221     650                                                        2390    0.41    0.00  1.0000
  -2  15  -2    6058    1040                                                        4370    2.74    0.00  1.0000
  -1  15  -2    1244     990                                                        2060    2.36    0.00  1.0000
   0  15  -2    1334     880                                                         700    2.35    0.00  1.0000
   1  15  -2    3199    1010                                                        3470    0.55    0.00  1.0000
   2  15  -2    2653    1070                                                        3200   -1.18    0.00  1.0000
   3  15  -2    4518    1000                                                        4020   -0.89    0.00  1.0000
   4  15  -2    3632    1070                                                        3630    0.00    0.00  1.0000
 -15   5  -2    5489    1660                                                        6069    0.89    0.00  1.0000
   5  15  -2    3017    1150                                                        3450    0.89    0.00  1.0000
   6  15  -2    4671    1210                                                        4840   -0.29    0.00  1.0000
 -15   6  -2    2717    1650                                                        2850   -0.29    0.00  1.0000
   7  15  -2    1028    1210                                                        1570   -1.77    0.00  1.0000
 -15   7  -2    1069    1700                                                        1620   -1.77    0.00  1.0000
   8  15  -2     946    1290                                                         690   -1.05    0.00  1.0000
 -15   8  -2    2719    1750                                                        2270   -1.05    0.00  1.0000
   9  15  -2       1    1370                                                       -1470   -0.22    0.00  1.0000
 -15   9  -2    1901    1800                                                        1820   -0.22    0.00  1.0000
  10  15  -2      30    1530                                                       -1660    1.28    0.00  1.0000
 -15  10  -2    1946    1790                                                        2460    1.28    0.00  1.0000
 -15  11  -2    2857    1780                                                        2540   -0.71    0.00  1.0000
  11  15  -2    3196    1740                                                        2860   -0.71    0.00  1.0000
  12  15  -2    2753    1900                                                        2100    1.55    0.00  1.0000
 -15  12  -2      44    1770                                                       -1680    1.56    0.00  1.0000
 -15  13  -2     974    1880                                                         820    0.60    0.00  1.0000
 -15  14  -2    2428    1950                                                        3920    3.12    0.00  1.0000
 -15  15  -2     362    1930                                                        1140   -3.45    0.00  1.0000
 -14  16  -2     988    2020                                                        2560   -4.48    0.00  1.0000
 -13  16  -2    3478    1880                                                        1700   -4.15    0.00  1.0000
 -12  16  -2    1093    1830                                                        2810   -4.66    0.00  1.0000
 -11  16  -2    4204    1750                                                        6049   -3.02    0.00  1.0000
 -10  16  -2     157    1480                                                       -1390   -2.93    0.00  1.0000
  -9  16  -2     526    1460                                                         980   -1.96    0.00  1.0000
  -8  16  -2     966    1370                                                         720   -0.99    0.00  1.0000
  -8  16   2     528    1130                                                         350   -1.00    0.00  1.0000
  -7  16  -2    1157    1310                                                         570   -2.37    0.00  1.0000
  -7  16   2     102    1080                                                        -510   -2.37    0.00  1.0000
  -6  16  -2   15032    1610                                                       13379   -1.62    0.00  1.0000
  -6  16   2   12044    1280                                                       10569   -1.62    0.00  1.0000
  -5  16  -2   13522    1680                                                       15958   -2.35    0.00  1.0000
  -5  16   2   12547    1560                                                       14899   -2.35    0.00  1.0000
  -4  16  -2    4271    1220                                                        4630    0.63    0.00  1.0000
  -4  16   2    4690     900                                                        5069    0.63    0.00  1.0000
  -3  16  -2    1629    1080                                                        1500   -0.38    0.00  1.0000
  -2  16  -2   12014    1400                                                       12519   -0.53    0.00  1.0000
  -1  16  -2      99     940                                                        -140   -2.33    0.00  1.0000
   0  16  -2     342     960                                                         100   -1.99    0.00  1.0000
   1  16  -2    6993    1230                                                        8869   -2.47    0.00  1.0000
   2  16  -2    2638    1040                                                        2010   -1.53    0.00  1.0000
   3  16  -2    8927    1250                                                        9139   -0.26    0.00  1.0000
   4  16  -2    4956    1100                                                        3560    2.51    0.00  1.0000
   5  16  -2     616    1120                                                        1230    2.40    0.00  1.0000
   6  16  -2    3826    1270                                                        5029    2.12    0.00  1.0000
 -16   6  -2    4810    1800                                                        6149    2.12    0.00  1.0000
   7  16  -2    3413    1280                                                        3460   -0.09    0.00  1.0000
 -16   7  -2    3118    1700                                                        3160   -0.09    0.00  1.0000
 -16   8  -2    3287    1800                                                        3210   -0.16    0.00  1.0000
   8  16  -2    1350    1340                                                        1300   -0.16    0.00  1.0000
   9  16  -2     135    1420                                                         570   -2.86    0.00  1.0000
 -16   9  -2    2183    1850                                                        3480   -2.87    0.00  1.0000
 -16  10  -2     935    1890                                                        1510   -1.94    0.00  1.0000
  10  16  -2    3222    1650                                                        4230   -1.94    0.00  1.0000
 -16  11  -2     314    1780                                                        -410   -4.14    0.00  1.0000
  11  16  -2     105    1760                                                         780   -4.13    0.00  1.0000
  12  16  -2    8850    2070                                                        8299    0.70    0.00  1.0000
 -16  12  -2    9130    2030                                                        8569    0.70    0.00  1.0000
 -16  13  -2      44    1940                                                        -180   -1.54    0.00  1.0000
 -16  14  -2    1551    2120                                                        2900    3.38    0.00  1.0000
 -13  17  -2    1247    1920                                                        2070   -2.38    0.00  1.0000
 -12  17  -2    1240    1750                                                         420   -3.44    0.00  1.0000
 -11  17  -2     352    1570                                                         230   -0.84    0.00  1.0000
 -10  17  -2     392    1550                                                         450   -0.33    0.00  1.0000
 -10  17   2       2    1240                                                       -3510   -0.34    0.00  1.0000
  -9  17  -2     414    1510                                                         540    0.68    0.00  1.0000
  -9  17   2    1533    1230                                                        1770    0.68    0.00  1.0000
  -8  17  -2      68    1380                                                        -240    1.92    0.00  1.0000
  -8  17   2      68    1170                                                       -1690    1.92    0.00  1.0000
  -7  17  -2    2607    1340                                                        2890    0.63    0.00  1.0000
  -7  17   2       7    1040                                                        -500    0.63    0.00  1.0000
  -6  17  -2    2170    1280                                                        2000    0.44    0.00  1.0000
  -6  17   2    1681    1070                                                        1530    0.44    0.00  1.0000
  -5  17  -2     225    1180                                                         420   -1.28    0.00  1.0000
  -5  17   2      81     920                                                         210   -1.29    0.00  1.0000
  -4  17  -2     661    1160                                                        1210    2.12    0.00  1.0000
  -4  17   2    1754     800                                                        2600    2.13    0.00  1.0000
  -3  17  -2     181    1010                                                         400    1.53    0.00  1.0000
  -2  17  -2    2327    1060                                                        2490    0.39    0.00  1.0000
  -1  17  -2     603     940                                                         120   -3.18    0.00  1.0000
   0  17  -2    3583    1090                                                        2960   -1.27    0.00  1.0000
   1  17  -2    5574    1150                                                        5479    0.15    0.00  1.0000
   2  17  -2    4029    1160                                                        5789    2.95    0.00  1.0000
   3  17  -2    2606    1140                                                        3690    2.27    0.00  1.0000
   4  17  -2   10515    1300                                                        7669    3.50    0.00  1.0000
   5  17  -2    6978    1360                                                        8569    2.11    0.00  1.0000
 -17   6  -2    5677    1750                                                        3680    3.43    0.00  1.0000
   6  17  -2    6771    1310                                                        4570    3.43    0.00  1.0000
   7  17  -2    1280    1310                                                        2130    2.42    0.00  1.0000
 -17   7  -2    1166    1810                                                        1980    2.42    0.00  1.0000
 -17   8  -2     196    1730                                                         770    3.21    0.00  1.0000
   8  17  -2     189    1390                                                        -260    3.21    0.00  1.0000
 -17   9  -2      22    1910                                                       -1810   -1.09    0.00  1.0000
   9  17  -2     460    1490                                                         680   -1.08    0.00  1.0000
  10  17  -2    2071    1620                                                        1960    0.29    0.00  1.0000
 -17  10  -2     820    1900                                                         750    0.29    0.00  1.0000
  11  17  -2    4169    1830                                                        2100   -4.38    0.00  1.0000
 -17  11  -2     881    1950                                                         120   -4.38    0.00  1.0000
 -17  12  -2    3816    1960                                                        2960   -1.72    0.00  1.0000
  12  17  -2    8023    2070                                                        6759   -1.72    0.00  1.0000
 -17  13  -2     603    2100                                                        3690   -8.46    0.00  1.0000
 -11  18  -2     310    1660                                                        1350   -4.47    0.00  1.0000
 -11  18   2     237    1450                                                        1190   -4.47    0.00  1.0000
 -10  18  -2      60    1580                                                         960   -5.43    0.00  1.0000
 -10  18   2     539    1360                                                       -1910   -5.43    0.00  1.0000
  -9  18  -2    2536    1510                                                        1250   -3.51    0.00  1.0000
  -9  18   2    1243    1210                                                         410   -3.51    0.00  1.0000
  -8  18  -2    5139    1520                                                        5629   -0.78    0.00  1.0000
  -8  18   2    4399    1470                                                        4850   -0.78    0.00  1.0000
  -7  18  -2    2830    1460                                                        3810   -1.99    0.00  1.0000
  -7  18   2    3565    1240                                                        4660   -2.00    0.00  1.0000
  -6  18  -2    3822    1330                                                        3100   -1.44    0.00  1.0000
  -6  18   2    3529    1190                                                        2840   -1.43    0.00  1.0000
  -5  18  -2     660    1240                                                        1670   -3.55    0.00  1.0000
  -5  18   2    3035     930                                                        4940   -3.55    0.00  1.0000
  -4  18  -2      11    1150                                                        -620    0.77    0.00  1.0000
  -3  18  -2       4    1050                                                        -840    0.49    0.00  1.0000
  -2  18  -2    4603    1130                                                        4030    1.02    0.00  1.0000
  -1  18  -2     760     960                                                         190   -3.22    0.00  1.0000
   0  18  -2    1341    1120                                                        1970   -1.82    0.00  1.0000
   1  18  -2       1    1090                                                          90   -1.94    0.00  1.0000
   2  18  -2    1242    1080                                                        1310    0.22    0.00  1.0000
   3  18  -2     252    1080                                                         120   -1.15    0.00  1.0000
   4  18  -2    2592    1210                                                        2520   -0.17    0.00  1.0000
   5  18  -2     770    1230                                                        1080   -1.20    0.00  1.0000
   6  18  -2    2250    1300                                                        2490    0.58    0.00  1.0000
 -18   6  -2    2697    1800                                                        2960    0.58    0.00  1.0000
 -18   7  -2    5523    1980                                                        6239   -1.09    0.00  1.0000
   7  18  -2    5419    1480                                                        6129   -1.09    0.00  1.0000
   8  18  -2    1122    1430                                                        1000   -0.44    0.00  1.0000
 -18   8  -2    2750    1930                                                        2560   -0.43    0.00  1.0000
   9  18  -2       0    1590                                                         360   -4.43    0.00  1.0000
 -18   9  -2     358    1900                                                       -1380   -4.42    0.00  1.0000
  10  18  -2     440    1700                                                         820    1.79    0.00  1.0000
 -18  10  -2    2118    2090                                                        2880    1.79    0.00  1.0000
  11  18  -2       0    1820                                                       -2000    0.15    0.00  1.0000
 -18  11  -2     782    2140                                                         820    0.16    0.00  1.0000
 -10  19  -2    1696    1630                                                        1880   -0.51    0.00  1.0000
 -10  19   2       5    1330                                                       -1530   -0.50    0.00  1.0000
  -9  19  -2     302    1470                                                         190    0.84    0.00  1.0000
  -9  19   2      13    1270                                                       -1890    0.83    0.00  1.0000
  -8  19  -2     255    1470                                                        -110    3.74    0.00  1.0000
  -8  19   2    1080    1670                                                        2390    3.74    0.00  1.0000
  -7  19  -2    5619    1480                                                        6089    0.72    0.00  1.0000
  -7  19   2    4693    1320                                                        5119    0.71    0.00  1.0000
  -6  19  -2      43    1260                                                           0    1.53    0.00  1.0000
  -6  19   2      43    1160                                                         -60    1.54    0.00  1.0000
  -5  19  -2      29    1230                                                          20   -2.31    0.00  1.0000
  -4  19  -2     254    1120                                                         510    1.55    0.00  1.0000
  -3  19  -2      37    1050                                                        -390    1.43    0.00  1.0000
  -2  19  -2     621     980                                                        -730    5.82    0.00  1.0000
  -1  19  -2     549    1080                                                        1400    3.27    0.00  1.0000
   0  19  -2     114    1110                                                        -740    2.50    0.00  1.0000
   1  19  -2     936    1140                                                        1400   -1.59    0.00  1.0000
   2  19  -2     965    1090                                                         580   -1.63    0.00  1.0000
   3  19  -2   12714    1580                                                       14439   -1.73    0.00  1.0000
   4  19  -2     353    1200                                                         320   -0.21    0.00  1.0000
   5  19  -2    1114    1220                                                         650   -1.84    0.00  1.0000
   6  19  -2    3397    1400                                                        4220   -1.56    0.00  1.0000
 -19   6  -2    1672    1870                                                        2260   -1.56    0.00  1.0000
 -19   7  -2    1760    1820                                                         740   -3.45    0.00  1.0000
   7  19  -2     217    1410                                                        -480   -3.44    0.00  1.0000
   8  19  -2     386    1490                                                         310   -0.47    0.00  1.0000
 -19   8  -2     133    3550                                                          90   -0.48    0.00  1.0000
   9  19  -2     860    1640                                                        1700   -2.78    0.00  1.0000
 -19   9  -2    1323    2030                                                        2330   -2.78    0.00  1.0000
 -19  10  -2     417    2040                                                       -1210    4.77    0.00  1.0000
  10  19  -2     418    1750                                                       -2680    4.78    0.00  1.0000
  -7  20  -2    2262    1380                                                        2710   -1.05    0.00  1.0000
  -6  20  -2     290    1260                                                         680    2.11    0.00  1.0000
  -5  20  -2    1509    1250                                                        2500   -2.61    0.00  1.0000
  -4  20  -2       5    1140                                                       -1310   -0.55    0.00  1.0000
  -3  20  -2    2844    1160                                                        1890   -2.30    0.00  1.0000
  -2  20  -2     136    1050                                                        -630    2.72    0.00  1.0000
  -1  20  -2    2499    1220                                                        3160    1.46    0.00  1.0000
   0  20  -2    1078    1140                                                        1110   -0.11    0.00  1.0000
   1  20  -2    3199    1150                                                        1380   -4.54    0.00  1.0000
   2  20  -2     702    1200                                                        1960   -4.15    0.00  1.0000
   3  20  -2     547    1200                                                         320   -1.29    0.00  1.0000
   4  20  -2    1737    1260                                                        1180    1.71    0.00  1.0000
   5  20  -2    2306    1310                                                        2270   -0.09    0.00  1.0000
 -20   6  -2    1697    2190                                                        2100   -1.08    0.00  1.0000
   6  20  -2    1932    1410                                                        2360   -1.08    0.00  1.0000
 -20   7  -2    2366    1830                                                        1380   -2.69    0.00  1.0000
   7  20  -2     132    1430                                                       -1380   -2.69    0.00  1.0000
  -4  21  -2    2049    1200                                                        2180    0.33    0.00  1.0000
  -3  21  -2    3113    1190                                                        4310   -2.30    0.00  1.0000
  -2  21  -2       5    1120                                                       -1250    0.53    0.00  1.0000
  -1  21  -2     795    1220                                                         940   -0.57    0.00  1.0000
   0  21  -2     894    1230                                                         760   -0.55    0.00  1.0000
   1  21  -2    3688    1250                                                        4310   -1.15    0.00  1.0000
   2  21  -2    2158    1250                                                        2620    1.11    0.00  1.0000
   3  21  -2    1370    1310                                                        3020    4.19    0.00  1.0000
   4  21  -2     335    1340                                                        1830    5.72    0.00  1.0000
  -1   0  -3    9360    1030                                                        8429    1.15    0.00  1.0000
   1   0  -3    8064     990                                                        7199    1.16    0.00  1.0000
   0  -1  -3    8158     950                                                        7289   -1.16    0.00  1.0000
   0   1  -3    7576     980                                                        6739   -1.16    0.00  1.0000
   1  -1  -3  230967   14849                                                      246935   -3.82    0.00  1.0000
   1   1  -3  232937   14859                                                      248965    3.82    0.00  1.0000
  -1  -1  -3  233857   14849                                                      249905    3.81    0.00  1.0000
  -1   1  -3  237538   14869                                                      253725   -3.82    0.00  1.0000
  -2  -1  -3   33495    2170                                                       30717    1.81    0.00  1.0000
   1  -2  -3   35939    2080                                                       33057   -1.81    0.00  1.0000
   2   1  -3   26370    2280                                                       23918    1.81    0.00  1.0000
  -2   0  -3     164     900                                                         200    0.31    0.00  1.0000
   0  -2  -3       2     720                                                        -640   -0.31    0.00  1.0000
   2   0  -3     994     780                                                        1080    0.31    0.00  1.0000
  -1  -2  -3   14120    1060                                                       10709    3.59    0.00  1.0000
   2  -1  -3   12963    1060                                                        9709   -3.58    0.00  1.0000
  -2   1  -3   12582    1210                                                        9379   -3.58    0.00  1.0000
   1   2  -3   13661    1420                                                       10309    3.59    0.00  1.0000
   2  -2  -3   15572    1410                                                       14179   -1.34    0.00  1.0000
   2   2  -3   15665    1500                                                       14269    1.33    0.00  1.0000
  -2   2  -3   15731    1570                                                       14329   -1.34    0.00  1.0000
  -2  -2  -3   16401    1450                                                       14969    1.34    0.00  1.0000
  -3  -2  -3   16158    1600                                                       17388   -1.11    0.00  1.0000
   3   2  -3   17277    1630                                                       18548   -1.11    0.00  1.0000
  -2   3  -3   17730    1790                                                       19018    1.11    0.00  1.0000
   2  -3  -3   17526    1570                                                       18808    1.11    0.00  1.0000
   1  -3  -3   62670    4020                                                       65503   -1.31    0.00  1.0000
  -3  -1  -3   62331    4100                                                       65163    1.31    0.00  1.0000
  -1   3  -3   61288    4150                                                       64084   -1.31    0.00  1.0000
   3   1  -3   61977    4090                                                       64804    1.31    0.00  1.0000
  -3   0  -3   22244    1690                                                       17648    3.81    0.00  1.0000
   0  -3  -3   23135    1480                                                       18438   -3.81    0.00  1.0000
   0   3  -3   22946    1670                                                       18268   -3.82    0.00  1.0000
   3   0  -3   20739    1620                                                       16308    3.81    0.00  1.0000
   1   3  -3   21263    1960                                                       25787   -3.45    0.00  1.0000
   3  -1  -3   20265    1950                                                       24688    3.45    0.00  1.0000
  -1  -3  -3   20982    1830                                                       25477   -3.45    0.00  1.0000
  -3   1  -3   18964    2050                                                       23248    3.45    0.00  1.0000
  -3   2  -3   11965    1480                                                       15948    3.95    0.00  1.0000
   2   3  -3   12265    1580                                                       16298   -3.95    0.00  1.0000
   3  -2  -3   11385    1500                                                       15278    3.95    0.00  1.0000
  -2  -3  -3   10804    1400                                                       14609   -3.96    0.00  1.0000
   3  -3  -3   19391    1420                                                       14399    4.50    0.00  1.0000
   3   3  -3   19090    1320                                                       14139   -4.50    0.00  1.0000
  -3   3  -3   18019    1420                                                       13219    4.50    0.00  1.0000
  -3  -3  -3   18844    1270                                                       13929   -4.50    0.00  1.0000
  -4  -3  -3   22125    1860                                                       24458   -1.79    0.00  1.0000
   4   3  -3   21536    1950                                                       23838   -1.79    0.00  1.0000
  -3   4  -3   20743    2080                                                       23008    1.79    0.00  1.0000
   3  -4  -3   21390    1900                                                       23688    1.79    0.00  1.0000
   4   2  -3   58318    3810                                                       59494    0.57    0.00  1.0000
  -2   4  -3   56775    3870                                                       57944   -0.57    0.00  1.0000
  -4  -2  -3   59494    3820                                                       60674    0.56    0.00  1.0000
   2  -4  -3   58103    3720                                                       59284   -0.57    0.00  1.0000
   1  -4  -3    2540     760                                                        3680   -2.40    0.00  1.0000
  -4  -1  -3    2466     990                                                        3590    2.40    0.00  1.0000
  -1   4  -3    1303    1010                                                        2150   -2.40    0.00  1.0000
   4   1  -3    1883     960                                                        2880    2.40    0.00  1.0000
   4   0  -3    4118     920                                                        2540    3.22    0.00  1.0000
   0  -4  -3    4006     710                                                        2450   -3.22    0.00  1.0000
   0   4  -3    4146     880                                                        2560   -3.22    0.00  1.0000
  -4   0  -3    5024    1000                                                        3260    3.22    0.00  1.0000
  -4   1  -3   69739    4070                                                       63234    2.95    0.00  1.0000
   1   4  -3   68154    3990                                                       61734   -2.95    0.00  1.0000
  -1  -4  -3   69391    3870                                                       62914   -2.94    0.00  1.0000
  -2  -4  -3      63     700                                                         -70   -1.85    0.00  1.0000
  -4   2  -3    1029    1000                                                        1600    1.85    0.00  1.0000
   2   4  -3       1     910                                                          50   -1.84    0.00  1.0000
   4  -2  -3     228     860                                                         530    1.85    0.00  1.0000
   4  -3  -3   23994    1910                                                       23068    0.71    0.00  1.0000
  -3  -4  -3   23900    1720                                                       22978   -0.70    0.00  1.0000
  -4   3  -3   22551    2000                                                       21658    0.70    0.00  1.0000
   3   4  -3   22381    1860                                                       21488   -0.70    0.00  1.0000
   4   4  -3    5220    1030                                                        5779    0.88    0.00  1.0000
  -4   4  -3    2890    1130                                                        3310   -0.88    0.00  1.0000
   4  -4  -3    5621    1090                                                        6199   -0.88    0.00  1.0000
  -4  -4  -3    4554     910                                                        5079    0.88    0.00  1.0000
  -4   5  -3    2504    1110                                                        1680   -2.12    0.00  1.0000
   5   4  -3    4139    1030                                                        3060    2.11    0.00  1.0000
  -5  -4  -3    3437     920                                                        2460    2.11    0.00  1.0000
   4  -5  -3    3569    1060                                                        2570   -2.12    0.00  1.0000
  -3   5  -3    3126    1100                                                        2790   -0.72    0.00  1.0000
  -5  -3  -3    3739     990                                                        3370    0.72    0.00  1.0000
   3  -5  -3    6030     970                                                        5559   -0.72    0.00  1.0000
   5   3  -3    4747     990                                                        4330    0.72    0.00  1.0000
   2  -5  -3   60944    3630                                                       57184   -1.81    0.00  1.0000
  -5  -2  -3   63560    3720                                                       59724    1.81    0.00  1.0000
   5   2  -3   57986    3710                                                       54325    1.81    0.00  1.0000
  -2   5  -3   62479    3780                                                       58674   -1.81    0.00  1.0000
   1  -5  -3   12073    1360                                                       13849   -1.82    0.00  1.0000
   5   1  -3   13348    1420                                                       15218    1.83    0.00  1.0000
  -1   5  -3   15126    1500                                                       17108   -1.83    0.00  1.0000
  -5  -1  -3   14277    1490                                                       16208    1.83    0.00  1.0000
   0   5  -3   10832    1250                                                       11459    0.69    0.00  1.0000
   5   0  -3   12432    1270                                                       13099   -0.69    0.00  1.0000
  -5   0  -3   10223    1520                                                       10829   -0.69    0.00  1.0000
   0  -5  -3   10094    1140                                                       10699    0.69    0.00  1.0000
   1   5  -3   31961    2290                                                       30347    1.07    0.00  1.0000
  -1  -5  -3   33667    2080                                                       32007    1.07    0.00  1.0000
   5  -1  -3   34990    2380                                                       33297   -1.07    0.00  1.0000
  -5   1  -3   30006    2370                                                       28437   -1.07    0.00  1.0000
  -2  -5  -3    7833     900                                                        8319   -0.63    0.00  1.0000
   5  -2  -3    8211    1210                                                        8709    0.63    0.00  1.0000
  -5   2  -3    6496    1270                                                        6939    0.63    0.00  1.0000
   2   5  -3    9320    1160                                                        9849   -0.63    0.00  1.0000
   5  -3  -3    4138    1880                                                        4210    0.13    0.00  1.0000
   3   5  -3    1968     900                                                        2020   -0.14    0.00  1.0000
  -3  -5  -3     542     710                                                         570   -0.14    0.00  1.0000
  -5   3  -3    2989    1130                                                        3050    0.13    0.00  1.0000
   5  -4  -3    3204    1120                                                        2980   -0.47    0.00  1.0000
  -5   4  -3    3296    1130                                                        3070   -0.47    0.00  1.0000
  -4  -5  -3    3205     800                                                        2980    0.47    0.00  1.0000
   4   5  -3    1639     930                                                        1480    0.47    0.00  1.0000
   5  -5  -3     809    1170                                                        1670   -2.91    0.00  1.0000
  -5  -5  -3     585     860                                                        1340    2.90    0.00  1.0000
  -5   5  -3     154    1750                                                       -1300   -2.90    0.00  1.0000
   5   5  -3    1479    1720                                                        2590    2.91    0.00  1.0000
   6   5  -3     101     970                                                        -580   -2.35    0.00  1.0000
  -6  -5  -3     535     910                                                        1100   -2.34    0.00  1.0000
  -5   6  -3     101    1090                                                        -900    2.35    0.00  1.0000
   6   4  -3   56614    4170                                                       52075   -2.28    0.00  1.0000
   4  -6  -3   60844    3710                                                       56134    2.28    0.00  1.0000
  -6  -4  -3   62115    3590                                                       57354   -2.28    0.00  1.0000
  -6  -3  -3   10090    1240                                                       10949   -0.98    0.00  1.0000
  -3   6  -3    9263    1320                                                       10089    0.98    0.00  1.0000
   6   3  -3    8932    1270                                                        9739   -0.98    0.00  1.0000
   3  -6  -3   10049    1260                                                       10909    0.98    0.00  1.0000
   6   2  -3   21304    1920                                                       21618    0.25    0.00  1.0000
  -6  -2  -3   19447    1900                                                       19748    0.25    0.00  1.0000
   2  -6  -3   22157    1740                                                       22478   -0.25    0.00  1.0000
  -2   6  -3   21842    1970                                                       22158   -0.25    0.00  1.0000
   6   1  -3   13535    1400                                                       12409    1.16    0.00  1.0000
  -1   6  -3   12223    1350                                                       11149   -1.16    0.00  1.0000
   1  -6  -3   14688    1140                                                       13509   -1.16    0.00  1.0000
  -6  -1  -3   13035    1550                                                       11929    1.16    0.00  1.0000
  -6   0  -3    8617    1270                                                        8389   -0.29    0.00  1.0000
   0   6  -3    8486    1150                                                        8259    0.29    0.00  1.0000
   6   0  -3    5735    1230                                                        5549   -0.29    0.00  1.0000
   0  -6  -3    9650     880                                                        9409    0.29    0.00  1.0000
  -1  -6  -3    2483     590                                                        2070    1.01    0.00  1.0000
   6  -1  -3    1599    1030                                                        1270   -1.02    0.00  1.0000
   1   6  -3    2755     980                                                        2320    1.01    0.00  1.0000
  -6   1  -3    1666    1120                                                        1330   -1.02    0.00  1.0000
  -6   2  -3       1    1100                                                         100    2.07    0.00  1.0000
   2   6  -3     629     880                                                        1150   -2.07    0.00  1.0000
   6  -2  -3    1743    1110                                                        2560    2.07    0.00  1.0000
  -2  -6  -3     153     600                                                         450   -2.06    0.00  1.0000
   3   6  -3    3612     970                                                        3540   -0.14    0.00  1.0000
  -3  -6  -3    4016     720                                                        3940   -0.14    0.00  1.0000
   6  -3  -3    4561    1260                                                        4480    0.14    0.00  1.0000
  -6   3  -3    5963    1200                                                        5869    0.14    0.00  1.0000
  -4  -6  -3     771     720                                                         680    0.39    0.00  1.0000
  -6   4  -3       3    1310                                                         -20   -0.39    0.00  1.0000
   6  -4  -3    2028    1260                                                        1880   -0.39    0.00  1.0000
   5   6  -3    4329     990                                                        2460    3.79    0.00  1.0000
  -5  -6  -3    6783     870                                                        4380    3.78    0.00  1.0000
  -6   5  -3    5855    1200                                                        3640   -3.78    0.00  1.0000
  -6  -6  -3     494     890                                                         930   -1.93    0.00  1.0000
  -6   6  -3    1144    1190                                                        1770    1.93    0.00  1.0000
   6   6  -3      69     990                                                        -140   -1.94    0.00  1.0000
  -6   7  -3     422    1210                                                         850    2.01    0.00  1.0000
  -7  -6  -3     938     970                                                        1540   -2.01    0.00  1.0000
   7   6  -3      74    1040                                                        -610   -2.01    0.00  1.0000
  -5   7  -3    3863    1210                                                        4270   -0.75    0.00  1.0000
  -7  -5  -3    1566    1040                                                        1830    0.75    0.00  1.0000
   7   5  -3    3833    1120                                                        4240    0.75    0.00  1.0000
  -7  -4  -3   47660    3090                                                       45865    0.97    0.00  1.0000
  -4   7  -3   45942    3200                                                       44176   -0.97    0.00  1.0000
   7   4  -3   46566    3150                                                       44786    0.97    0.00  1.0000
  -3   7  -3   17521    1670                                                       18598   -0.94    0.00  1.0000
   7   3  -3   15896    1680                                                       16918    0.93    0.00  1.0000
  -7  -3  -3   14978    1620                                                       15968    0.93    0.00  1.0000
   3  -7  -3   17512    1600                                                       18588   -0.94    0.00  1.0000
  -7  -2  -3    3217    1140                                                        3130   -0.18    0.00  1.0000
   2  -7  -3    5210    1020                                                        5099    0.18    0.00  1.0000
   1  -7  -3   15129    1500                                                       15748   -0.58    0.00  1.0000
  -7  -1  -3   17778    1880                                                       18448    0.58    0.00  1.0000
   7   1  -3   18626    1660                                                       19308    0.58    0.00  1.0000
  -1   7  -3   15716    1640                                                       16348   -0.58    0.00  1.0000
  -7   0  -3   45927    3010                                                       42696    1.79    0.00  1.0000
   7   0  -3   43945    2990                                                       40786    1.79    0.00  1.0000
   0  -7  -3   43633    2650                                                       40496   -1.79    0.00  1.0000
   0   7  -3   44878    2850                                                       41696   -1.79    0.00  1.0000
   7  -1  -3    5858    1260                                                        6689   -1.23    0.00  1.0000
  -7   1  -3    3822    1230                                                        4500   -1.23    0.00  1.0000
   1   7  -3    3334    1030                                                        3970    1.23    0.00  1.0000
  -1  -7  -3    3061     680                                                        3670    1.23    0.00  1.0000
  -2  -7  -3    5079     650                                                        4910   -0.28    0.00  1.0000
   7  -2  -3    4958    1350                                                        4790    0.28    0.00  1.0000
  -7   2  -3    4173    1260                                                        4020    0.28    0.00  1.0000
   2   7  -3    3848    1540                                                        3700   -0.28    0.00  1.0000
   3   7  -3   20941    2150                                                       23528    2.03    0.00  1.0000
  -3  -7  -3   20866    1630                                                       23448    2.03    0.00  1.0000
   7  -3  -3   20892    2270                                                       23478   -2.03    0.00  1.0000
   7  -4  -3   13577    1670                                                       13739    0.16    0.00  1.0000
   4   7  -3   16265    1450                                                       16448   -0.17    0.00  1.0000
  -4  -7  -3   13871    1270                                                       14039   -0.17    0.00  1.0000
  -7   4  -3   17745    1680                                                       17928    0.16    0.00  1.0000
  -7   5  -3   18243    1880                                                       20758   -2.11    0.00  1.0000
  -5  -7  -3   17726    1520                                                       20208    2.11    0.00  1.0000
   5   7  -3   14978    1820                                                       17268    2.11    0.00  1.0000
  -6  -7  -3    1455     820                                                        1420   -0.11    0.00  1.0000
   6   7  -3     643    1040                                                         620   -0.11    0.00  1.0000
  -7   6  -3    1577    1260                                                        1540    0.11    0.00  1.0000
   7   7  -3   10091    1390                                                       10939   -0.97    0.00  1.0000
  -7   7  -3   10278    1510                                                       11139    0.97    0.00  1.0000
  -7  -7  -3   10804    1200                                                       11679   -0.97    0.00  1.0000
  -8  -7  -3    6312    1180                                                        6229   -0.12    0.00  1.0000
  -7   8  -3    6593    1410                                                        6509    0.12    0.00  1.0000
   8   7  -3    9539    1400                                                        9439   -0.12    0.00  1.0000
  -8  -6  -3      47    1050                                                        -730   -1.60    0.00  1.0000
   8   6  -3      47    1230                                                        -110   -1.60    0.00  1.0000
  -6   8  -3      47    1180                                                        -450    1.60    0.00  1.0000
   8   5  -3      18    1180                                                        -320    1.00    0.00  1.0000
  -5   8  -3    1739    1140                                                        1400   -1.00    0.00  1.0000
  -8  -5  -3    1749    1070                                                        1410    1.00    0.00  1.0000
   8   4  -3    3059    1150                                                        3030   -0.06    0.00  1.0000
  -4   8  -3    1632    1160                                                        1610    0.06    0.00  1.0000
  -3   8  -3   25503    2310                                                       28417    2.07    0.00  1.0000
  -8  -3  -3   26917    2300                                                       29907   -2.07    0.00  1.0000
   8   3  -3   21882    2340                                                       24588   -2.08    0.00  1.0000
   8   2  -3    2476    1290                                                        4410   -3.89    0.00  1.0000
  -8  -2  -3    1328    1180                                                        2820   -3.89    0.00  1.0000
  -2   8  -3    1690    1130                                                        3340    3.90    0.00  1.0000
   8   1  -3    3841    1350                                                        5529   -2.89    0.00  1.0000
   1  -8  -3    3434    1000                                                        5039    2.89    0.00  1.0000
  -1   8  -3    2919    1100                                                        4410    2.89    0.00  1.0000
  -8  -1  -3    4553    1250                                                        6379   -2.90    0.00  1.0000
  -8   0  -3    1555    1210                                                        2190    1.72    0.00  1.0000
   0  -8  -3    2057     780                                                        2780   -1.72    0.00  1.0000
   8   0  -3    3736    1310                                                        4690    1.72    0.00  1.0000
   0   8  -3    2499    1020                                                        3290   -1.72    0.00  1.0000
   1   8  -3    3929    1030                                                        3030    1.79    0.00  1.0000
  -8   1  -3    5917    1320                                                        4800   -1.79    0.00  1.0000
  -1  -8  -3    7535     740                                                        6269    1.78    0.00  1.0000
   2   8  -3   17297    1420                                                       15378    1.76    0.00  1.0000
   8  -2  -3   18649    1900                                                       16648   -1.76    0.00  1.0000
  -8   2  -3   15623    1910                                                       13799   -1.76    0.00  1.0000
  -2  -8  -3   16024    1150                                                       14179    1.76    0.00  1.0000
  -8   3  -3    6249    1380                                                        4550   -2.71    0.00  1.0000
  -3  -8  -3    7253     660                                                        5409    2.72    0.00  1.0000
   8  -3  -3   10298    1440                                                        8079   -2.71    0.00  1.0000
   3   8  -3    6870    1040                                                        5079    2.72    0.00  1.0000
  -8   4  -3   10868    1510                                                        9239    1.90    0.00  1.0000
  -4  -8  -3   10476     950                                                        8879   -1.90    0.00  1.0000
   4   8  -3   11713    1200                                                       10019   -1.90    0.00  1.0000
  -5  -8  -3   26040    1950                                                       28447   -1.71    0.00  1.0000
  -8   5  -3   27324    2560                                                       29797    1.71    0.00  1.0000
   5   8  -3   26180    2260                                                       28597   -1.71    0.00  1.0000
  -8   6  -3   19297    1950                                                       19878   -0.49    0.00  1.0000
  -6  -8  -3   19645    1560                                                       20228    0.48    0.00  1.0000
   6   8  -3   17071    1910                                                       17618    0.49    0.00  1.0000
  -8   7  -3    1016    1380                                                        1170    0.54    0.00  1.0000
  -7  -8  -3     737     840                                                         870   -0.55    0.00  1.0000
   7   8  -3     903    1110                                                        1050   -0.55    0.00  1.0000
  -8   8  -3   11524    1700                                                       11809    0.31    0.00  1.0000
   8   8  -3   11900    1570                                                       12189   -0.31    0.00  1.0000
  -8  -8  -3   13075    1340                                                       13379   -0.31    0.00  1.0000
   9   8  -3     137    1280                                                        -170   -2.74    0.00  1.0000
  -8   9  -3     137    1240                                                       -1000    2.73    0.00  1.0000
  -9  -8  -3     137    1040                                                        -290   -2.74    0.00  1.0000
   9   7  -3     614    1240                                                         430   -0.94    0.00  1.0000
  -9  -7  -3     601    1110                                                         420   -0.94    0.00  1.0000
  -7   9  -3      16    1320                                                        -410    0.94    0.00  1.0000
  -9  -6  -3    6764    1560                                                        6599   -0.24    0.00  1.0000
  -6   9  -3   11479    1500                                                       11259    0.24    0.00  1.0000
   9   6  -3    8767    1460                                                        8579   -0.24    0.00  1.0000
  -5   9  -3   12938    1420                                                        9649   -3.63    0.00  1.0000
  -9  -5  -3   14621    1370                                                       11109    3.63    0.00  1.0000
   9   5  -3   10582    1460                                                        7629    3.63    0.00  1.0000
  -4   9  -3   25671    2480                                                       31447   -4.00    0.00  1.0000
   9   4  -3   21661    2600                                                       26997    4.00    0.00  1.0000
  -9  -4  -3   25971    2440                                                       31787    4.00    0.00  1.0000
  -3   9  -3    7407    1340                                                        8839   -1.86    0.00  1.0000
   9   3  -3    8844    1570                                                       10399    1.85    0.00  1.0000
  -9  -3  -3    9916    1430                                                       11559    1.85    0.00  1.0000
  -9  -2  -3   14271    1670                                                       14639   -0.36    0.00  1.0000
  -2   9  -3   16399    1610                                                       16788    0.35    0.00  1.0000
   9   2  -3   16958    1800                                                       17358   -0.36    0.00  1.0000
  -1   9  -3    2858    1040                                                        2120    1.73    0.00  1.0000
   9   1  -3    3389    1410                                                        2580   -1.73    0.00  1.0000
  -9  -1  -3    2614    1220                                                        1910   -1.74    0.00  1.0000
  -9   0  -3   11736    2310                                                       12979    1.31    0.00  1.0000
   9   0  -3   12013    1820                                                       13269    1.31    0.00  1.0000
   0   9  -3   12724    1370                                                       14019   -1.31    0.00  1.0000
  -9   1  -3    3166    1310                                                        4680   -2.84    0.00  1.0000
   9  -1  -3    1141    1380                                                        2110   -2.84    0.00  1.0000
   1   9  -3     747     990                                                        1560    2.84    0.00  1.0000
   2   9  -3    4855    1170                                                        8449    5.20    0.00  1.0000
   9  -2  -3    5674    1620                                                        9519   -5.20    0.00  1.0000
  -9   2  -3    4440    1440                                                        7899   -5.20    0.00  1.0000
  -9   3  -3     669    1290                                                        2400   -5.41    0.00  1.0000
   3   9  -3     289     960                                                        1610    5.41    0.00  1.0000
   4   9  -3    4732    1060                                                        4290    0.77    0.00  1.0000
  -9   4  -3    4471    1440                                                        4040   -0.77    0.00  1.0000
   5   9  -3    6657    1140                                                        5339   -1.99    0.00  1.0000
  -9   5  -3    7109    1530                                                        5749    1.99    0.00  1.0000
  -5  -9  -3    8230     720                                                        6759   -1.99    0.00  1.0000
   6   9  -3   15024    1520                                                       13489    1.50    0.00  1.0000
  -9   6  -3   13829    1780                                                       12359   -1.50    0.00  1.0000
  -6  -9  -3   16667    1230                                                       15048    1.50    0.00  1.0000
  -9   7  -3   11285    1720                                                       12389   -1.19    0.00  1.0000
   7   9  -3   12730    1510                                                       13899    1.18    0.00  1.0000
  -7  -9  -3   11888    1300                                                       13019    1.18    0.00  1.0000
  -8  -9  -3    2246     970                                                        3050    1.83    0.00  1.0000
  -9   8  -3      61    1420                                                        -980   -1.82    0.00  1.0000
   8   9  -3     118    1150                                                         350    1.83    0.00  1.0000
  -9   9  -3    1772    1500                                                        2140    0.97    0.00  1.0000
   9   9  -3      17    1270                                                        -810   -0.97    0.00  1.0000
  -9  -9  -3      17    1030                                                       -1560   -0.97    0.00  1.0000
 -10  -9  -3   10922    1420                                                       11469    0.60    0.00  1.0000
  10   9  -3    9800    1660                                                       10319    0.60    0.00  1.0000
  -9  10  -3    9683    1730                                                       10199   -0.60    0.00  1.0000
  10   8  -3   15323    1770                                                       14569    0.72    0.00  1.0000
 -10  -8  -3   12891    1720                                                       12199    0.72    0.00  1.0000
  -8  10  -3   15972    1770                                                       15208   -0.71    0.00  1.0000
  10   7  -3    3242    1410                                                        3510    0.54    0.00  1.0000
  -7  10  -3    2398    1360                                                        2630   -0.54    0.00  1.0000
 -10  -7  -3    2589    1210                                                        2830    0.54    0.00  1.0000
  10   6  -3    2846    1430                                                        3320   -1.00    0.00  1.0000
 -10  -6  -3    2366    1230                                                        2800   -1.00    0.00  1.0000
  -6  10  -3    1853    1290                                                        2240    1.00    0.00  1.0000
  -5  10  -3    3818    1290                                                        3960    0.27    0.00  1.0000
  10   5  -3    5872    1510                                                        6049   -0.27    0.00  1.0000
 -10  -5  -3    4915    1280                                                        5079   -0.27    0.00  1.0000
  -4  10  -3    4160    1260                                                        4470    0.55    0.00  1.0000
 -10  -4  -3    2927    1250                                                        3190   -0.56    0.00  1.0000
  10   4  -3    3388    1430                                                        3670   -0.55    0.00  1.0000
 -10  -3  -3   17965    1650                                                       15368   -2.35    0.00  1.0000
  10   3  -3   18378    1890                                                       15748   -2.36    0.00  1.0000
  -3  10  -3   16549    1550                                                       14059    2.35    0.00  1.0000
 -10  -2  -3     542    1320                                                        1570   -3.82    0.00  1.0000
  -2  10  -3    1610    1110                                                        3190    3.82    0.00  1.0000
  10   2  -3    1012    1460                                                        2320   -3.82    0.00  1.0000
  -1  10  -3     389     970                                                       -1690    4.61    0.00  1.0000
 -10  -1  -3      27    1260                                                         210   -4.60    0.00  1.0000
  10   1  -3     358    1500                                                        1490   -4.60    0.00  1.0000
  10   0  -3      65    1350                                                       -1920   -1.88    0.00  1.0000
   0  10  -3      65     930                                                         -50    1.88    0.00  1.0000
 -10   0  -3      65    1290                                                        -690   -1.88    0.00  1.0000
   1  10  -3   39630    2900                                                       41946    1.34    0.00  1.0000
 -10   1  -3   38653    3120                                                       40946   -1.34    0.00  1.0000
 -10   2  -3     327    1360                                                         750   -2.17    0.00  1.0000
   2  10  -3     177     980                                                         510    2.17    0.00  1.0000
 -10   3  -3   13455    1620                                                       12079   -1.42    0.00  1.0000
   3  10  -3    9935    1230                                                        8759    1.42    0.00  1.0000
   4  10  -3   26645    2210                                                       26407   -0.17    0.00  1.0000
 -10   4  -3   31094    2610                                                       30827    0.18    0.00  1.0000
 -10   5  -3    3067    1490                                                        4790    3.23    0.00  1.0000
   5  10  -3    1963    1090                                                        3380   -3.23    0.00  1.0000
   6  10  -3    1115    1120                                                        1390   -0.91    0.00  1.0000
 -10   6  -3    1123    1490                                                        1400    0.91    0.00  1.0000
 -10   7  -3       2    1510                                                       -1130    0.32    0.00  1.0000
  -7 -10  -3     109     710                                                         140   -0.32    0.00  1.0000
   7  10  -3       2    1110                                                        -760   -0.32    0.00  1.0000
 -10   8  -3     866    1500                                                        1110   -0.91    0.00  1.0000
  -8 -10  -3    1187     820                                                        1470    0.91    0.00  1.0000
   8  10  -3    1815    1260                                                        2160    0.91    0.00  1.0000
   9  10  -3     245    1320                                                         430   -1.19    0.00  1.0000
  -9 -10  -3      26     950                                                       -2070   -1.19    0.00  1.0000
 -10   9  -3      26    1520                                                       -1860    1.19    0.00  1.0000
 -10  10  -3     107    1610                                                        -650    2.42    0.00  1.0000
  10  10  -3    3377    1390                                                        2280   -2.42    0.00  1.0000
 -10 -10  -3     652    1100                                                         230   -2.42    0.00  1.0000
 -11 -10  -3    1053    1320                                                         790   -1.02    0.00  1.0000
  11  10  -3      19    1590                                                         -70   -1.01    0.00  1.0000
 -10  11  -3     690    1560                                                         480    1.02    0.00  1.0000
  11   9  -3    6501    1580                                                        5319    1.80    0.00  1.0000
 -11  -9  -3    5334    1290                                                        4270    1.80    0.00  1.0000
  -9  11  -3    6139    1520                                                        4990   -1.80    0.00  1.0000
  -8  11  -3     889    1440                                                        1450   -1.93    0.00  1.0000
 -11  -8  -3    1993    1250                                                        2800    1.93    0.00  1.0000
  11   8  -3    1263    1520                                                        1920    1.93    0.00  1.0000
  -7  11  -3    1050    1330                                                        1210    0.56    0.00  1.0000
  11   7  -3    2333    1540                                                        2570   -0.56    0.00  1.0000
 -11  -7  -3    2314    1260                                                        2550   -0.56    0.00  1.0000
 -11  -6  -3   10938    1420                                                        8729   -2.61    0.00  1.0000
  11   6  -3    8572    1710                                                        6629   -2.61    0.00  1.0000
  -6  11  -3    9319    1440                                                        7289    2.61    0.00  1.0000
  11   5  -3       1    1520                                                         100   -2.11    0.00  1.0000
 -11  -5  -3    1290    1290                                                        2020   -2.11    0.00  1.0000
  -5  11  -3    2225    1270                                                        3160    2.11    0.00  1.0000
  -4  11  -3      36    1120                                                         -80    1.40    0.00  1.0000
 -11  -4  -3      36    1520                                                       -1240   -1.39    0.00  1.0000
  11   4  -3     855    1490                                                        1240   -1.40    0.00  1.0000
  -3  11  -3    5867    1260                                                        6609    1.10    0.00  1.0000
  11   3  -3    7242    1770                                                        8059   -1.09    0.00  1.0000
 -11  -3  -3    4677    1400                                                        5339   -1.09    0.00  1.0000
 -11  -2  -3     109    1270                                                         290   -1.54    0.00  1.0000
  11   2  -3    1490    1590                                                        2040   -1.53    0.00  1.0000
  -2  11  -3     597    1060                                                         960    1.53    0.00  1.0000
  -1  11  -3     162    1030                                                         140    0.21    0.00  1.0000
 -11  -1  -3       1    1290                                                        -630   -0.21    0.00  1.0000
  11   1  -3    1356    1420                                                        1290   -0.21    0.00  1.0000
   0  11  -3       7     950                                                        -150   -0.60    0.00  1.0000
 -11   0  -3    1882    1350                                                        2110    0.60    0.00  1.0000
   1  11  -3     772     970                                                        1610   -2.88    0.00  1.0000
 -11   1  -3     215    1360                                                         730    2.88    0.00  1.0000
   2  11  -3   20223    1970                                                       21648   -1.15    0.00  1.0000
 -11   2  -3   24134    2400                                                       25697    1.16    0.00  1.0000
   3  11  -3       0     940                                                       -1830   -0.06    0.00  1.0000
 -11   3  -3     390    1440                                                         400    0.06    0.00  1.0000
   4  11  -3     294    1020                                                         730    2.31    0.00  1.0000
 -11   4  -3       0    1470                                                         110   -2.31    0.00  1.0000
   5  11  -3      17    1060                                                        -500    0.98    0.00  1.0000
 -11   5  -3      52    1500                                                         130   -0.98    0.00  1.0000
 -11   6  -3       3    1470                                                       -1070   -0.40    0.00  1.0000
   6  11  -3    1897    1110                                                        1750    0.40    0.00  1.0000
 -11   7  -3    1581    1490                                                        1630   -0.14    0.00  1.0000
   7  11  -3     145    1110                                                         160    0.15    0.00  1.0000
   8  11  -3       1    1190                                                        -630    0.17    0.00  1.0000
 -11   8  -3    4537    1650                                                        4440   -0.17    0.00  1.0000
  -8 -11  -3    4163     790                                                        4070    0.17    0.00  1.0000
 -11   9  -3    5208    1850                                                        6229    1.58    0.00  1.0000
  -9 -11  -3    9669    1150                                                       11039   -1.57    0.00  1.0000
   9  11  -3    9687    1540                                                       11059   -1.57    0.00  1.0000
  10  11  -3     285    1440                                                        1190   -4.12    0.00  1.0000
 -11  10  -3     103    1630                                                         770    4.11    0.00  1.0000
 -10 -11  -3     192    1060                                                         990   -4.12    0.00  1.0000
 -11 -11  -3     111    1150                                                       -1080   -2.46    0.00  1.0000
 -11  11  -3    1061    1700                                                        1860    2.47    0.00  1.0000
  11  11  -3    1803    1610                                                        2810   -2.47    0.00  1.0000
  12  11  -3      18    1740                                                        -510    1.00    0.00  1.0000
 -12 -11  -3    1538    1340                                                        1890    0.99    0.00  1.0000
 -11  12  -3    3188    1740                                                        3690   -1.00    0.00  1.0000
 -12 -10  -3    2987    1360                                                        3350   -0.75    0.00  1.0000
  12  10  -3    2001    1800                                                        2300   -0.75    0.00  1.0000
 -10  12  -3    5672    1690                                                        6169    0.75    0.00  1.0000
  12   9  -3    3926    1750                                                        3470   -0.88    0.00  1.0000
  -9  12  -3    4188    1550                                                        3720    0.87    0.00  1.0000
 -12  -9  -3     516    1340                                                         360   -0.87    0.00  1.0000
 -12  -8  -3       2    1290                                                       -2070    0.30    0.00  1.0000
  12   8  -3    1330    1610                                                        1240    0.29    0.00  1.0000
  -8  12  -3     182    1430                                                         150   -0.29    0.00  1.0000
 -12  -7  -3    2111    1340                                                        2080   -0.08    0.00  1.0000
  -7  12  -3    1063    1400                                                        1040    0.08    0.00  1.0000
  12   7  -3     646    1640                                                         630   -0.08    0.00  1.0000
  12   6  -3    1774    1680                                                        1960   -0.50    0.00  1.0000
  -6  12  -3    2165    1350                                                        2370    0.50    0.00  1.0000
  12   5  -3    4882    1670                                                        4390   -0.85    0.00  1.0000
  -5  12  -3    5818    1360                                                        5279    0.85    0.00  1.0000
 -12  -5  -3    3771    1420                                                        3340   -0.84    0.00  1.0000
 -12  -4  -3    1839    1350                                                        1010   -2.60    0.00  1.0000
  -4  12  -3    4648    1210                                                        3260    2.59    0.00  1.0000
  12   4  -3    1282    1690                                                         610   -2.60    0.00  1.0000
  -3  12  -3     474    1170                                                        1170    2.91    0.00  1.0000
  12   3  -3     155    1600                                                       -2310   -2.91    0.00  1.0000
 -12  -3  -3     155    1370                                                        -610   -2.91    0.00  1.0000
  -2  12  -3     226    1070                                                        1100    4.24    0.00  1.0000
 -12  -2  -3    1183    1430                                                        2760   -4.24    0.00  1.0000
  -1  12  -3      23    1040                                                           0    1.13    0.00  1.0000
 -12  -1  -3    2167    1460                                                        1740   -1.13    0.00  1.0000
   0  12  -3    1123    1030                                                         680    1.74    0.00  1.0000
 -12   0  -3    2342    1410                                                        1680   -1.73    0.00  1.0000
   1  12  -3      95    1080                                                         210   -1.11    0.00  1.0000
 -12   1  -3     579    1430                                                         830    1.11    0.00  1.0000
 -12   2  -3    5680    1530                                                        4750    1.51    0.00  1.0000
   2  12  -3    7795    1140                                                        6699   -1.51    0.00  1.0000
   3  12  -3      60    1040                                                          60   -3.63    0.00  1.0000
 -12   3  -3     129    1510                                                         720    3.62    0.00  1.0000
 -12   4  -3    2015    1550                                                         970    3.21    0.00  1.0000
   4  12  -3    2173    1050                                                        1080   -3.22    0.00  1.0000
   5  12  -3    5475    1230                                                        6639   -1.75    0.00  1.0000
 -12   5  -3    3568    1620                                                        4520    1.75    0.00  1.0000
   6  12  -3    1023    1140                                                         950   -0.27    0.00  1.0000
 -12   6  -3     321    1520                                                         280    0.28    0.00  1.0000
 -12   7  -3   10092    1890                                                       11509   -1.59    0.00  1.0000
   7  12  -3   11295    1520                                                       12799    1.60    0.00  1.0000
   8  12  -3    6297    1320                                                        5429    1.33    0.00  1.0000
 -12   8  -3    2732    1690                                                        2170   -1.33    0.00  1.0000
  -9 -12  -3    6144     930                                                        6079   -0.10    0.00  1.0000
   9  12  -3    8425    1540                                                        8349   -0.10    0.00  1.0000
 -12   9  -3    5701    1860                                                        5639    0.10    0.00  1.0000
 -12  10  -3    3004    1740                                                        2490    1.15    0.00  1.0000
 -10 -12  -3    2919    1000                                                        2410   -1.15    0.00  1.0000
  10  12  -3      24    1440                                                        -400   -1.15    0.00  1.0000
  11  12  -3     900    1640                                                        1040    0.52    0.00  1.0000
 -12  11  -3    1275    1790                                                        1440   -0.52    0.00  1.0000
 -11 -12  -3     324    1110                                                         410    0.53    0.00  1.0000
  12  12  -3    4371    1750                                                        2730    3.24    0.00  1.0000
 -12 -12  -3    3274    1290                                                        1880    3.24    0.00  1.0000
 -12  12  -3    4190    1750                                                        2590   -3.23    0.00  1.0000
  13  12  -3     309    1850                                                       -2800    4.11    0.00  1.0000
 -13 -12  -3      97    1320                                                          60    4.11    0.00  1.0000
 -12  13  -3     755    1850                                                        2030   -4.11    0.00  1.0000
  13  11  -3     136    1950                                                         960    4.52    0.00  1.0000
 -13 -11  -3     374    1340                                                        -150    4.52    0.00  1.0000
 -11  13  -3     837    1670                                                        2330   -4.52    0.00  1.0000
 -13 -10  -3    1484    1420                                                        1740    0.75    0.00  1.0000
  13  10  -3    6072    1940                                                        6579    0.75    0.00  1.0000
 -10  13  -3    2502    1570                                                        2830   -0.74    0.00  1.0000
  -9  13  -3     793    1530                                                        1440    2.29    0.00  1.0000
  13   9  -3    3431    1990                                                        4670   -2.28    0.00  1.0000
 -13  -9  -3     750    1570                                                        1380   -2.28    0.00  1.0000
  -8  13  -3    1391    1470                                                        1020    1.25    0.00  1.0000
  13   8  -3    3463    1870                                                        2860   -1.25    0.00  1.0000
 -13  -8  -3    4404    1460                                                        3720   -1.26    0.00  1.0000
  13   7  -3     533    1690                                                         340    1.09    0.00  1.0000
 -13  -7  -3    1234    1410                                                         930    1.08    0.00  1.0000
  -7  13  -3     326    1360                                                         180   -1.08    0.00  1.0000
  13   6  -3    3274    1680                                                        2200    2.41    0.00  1.0000
  -6  13  -3    4086    1370                                                        2870   -2.42    0.00  1.0000
 -13  -6  -3    2418    1460                                                        1510    2.41    0.00  1.0000
  -5  13  -3     641    1260                                                         270   -2.08    0.00  1.0000
  13   5  -3    2279    1660                                                        1510    2.08    0.00  1.0000
 -13  -5  -3     732    1430                                                         330    2.08    0.00  1.0000
  -4  13  -3       0    1170                                                        -370    0.16    0.00  1.0000
 -13  -4  -3       0    1450                                                           0   -0.15    0.00  1.0000
 -13  -3  -3      19    1460                                                       -1330    1.03    0.00  1.0000
  -3  13  -3    2649    1200                                                        3120   -1.03    0.00  1.0000
  -2  13  -3      79    1080                                                         110   -0.37    0.00  1.0000
 -13  -2  -3     122    1490                                                         160    0.37    0.00  1.0000
  -1  13  -3     252    1040                                                       -1100   -3.71    0.00  1.0000
 -13  -1  -3     284    1450                                                        1070    3.70    0.00  1.0000
   0  13  -3    4522    1120                                                        3970   -0.99    0.00  1.0000
 -13   0  -3    5616    1630                                                        4999    0.99    0.00  1.0000
   1  13  -3    3312    1140                                                        3340    0.06    0.00  1.0000
 -13   1  -3    5669    1660                                                        5709   -0.06    0.00  1.0000
 -13   2  -3     837    1510                                                         560   -1.23    0.00  1.0000
   2  13  -3      28    1050                                                         -10    1.23    0.00  1.0000
   3  13  -3      32    1070                                                         -50   -1.33    0.00  1.0000
 -13   3  -3    1534    1540                                                        1120    1.33    0.00  1.0000
   4  13  -3       5    1070                                                         250   -3.20    0.00  1.0000
 -13   4  -3     188    1580                                                       -1060    3.20    0.00  1.0000
   5  13  -3     176    1110                                                         180   -0.03    0.00  1.0000
 -13   5  -3    1776    1620                                                        1790    0.04    0.00  1.0000
   6  13  -3     307    1170                                                        -300    4.09    0.00  1.0000
 -13   6  -3     308    1690                                                         -80   -4.10    0.00  1.0000
 -13   7  -3      96    1690                                                        1240   -5.94    0.00  1.0000
   7  13  -3     646    1180                                                        -470    5.94    0.00  1.0000
 -13   8  -3    1168    1680                                                        2270   -3.15    0.00  1.0000
   8  13  -3      64    1290                                                         460    3.15    0.00  1.0000
   9  13  -3    3316    1460                                                        3600   -0.57    0.00  1.0000
 -13   9  -3    2787    1740                                                        3050    0.57    0.00  1.0000
  10  13  -3    9784    1690                                                        9439   -0.41    0.00  1.0000
 -13  10  -3   10655    2050                                                       10289    0.42    0.00  1.0000
 -13  11  -3   16312    2200                                                       15018   -1.21    0.00  1.0000
 -11 -13  -3   15081    1480                                                       13839    1.21    0.00  1.0000
  11  13  -3   17225    2040                                                       15898    1.21    0.00  1.0000
  12  13  -3    3719    1820                                                        4990    2.26    0.00  1.0000
 -12 -13  -3    2375    1280                                                        3410    2.26    0.00  1.0000
 -13  12  -3    5991    1980                                                        7579   -2.26    0.00  1.0000
 -13 -13  -3    1691    1850                                                        2450    1.96    0.00  1.0000
  13  13  -3    2136    1930                                                        2980    1.96    0.00  1.0000
 -13  13  -3    2653    1900                                                        3590   -1.97    0.00  1.0000
 -14 -13  -3    4090    1450                                                        4040    0.09    0.00  1.0000
  14  13  -3    3406    2060                                                        3360    0.09    0.00  1.0000
 -13  14  -3    6242    2010                                                        6179   -0.09    0.00  1.0000
  14  12  -3       1    1920                                                       -1730   -0.25    0.00  1.0000
 -12  14  -3    2194    1770                                                        2300    0.26    0.00  1.0000
 -14 -12  -3       1    1420                                                         -30   -0.26    0.00  1.0000
 -11  14  -3     467    1650                                                         900   -1.96    0.00  1.0000
  14  11  -3       0    1990                                                          80    1.96    0.00  1.0000
  14  10  -3      46    1850                                                        -120   -1.58    0.00  1.0000
 -10  14  -3     396    1670                                                         710    1.58    0.00  1.0000
 -14 -10  -3     130    1490                                                         330   -1.58    0.00  1.0000
 -14  -9  -3    1222    1530                                                        3160   -4.97    0.00  1.0000
  -9  14  -3    1160    1580                                                        3060    4.97    0.00  1.0000
  14   9  -3    1502    1980                                                        3600   -4.97    0.00  1.0000
  14   8  -3    2060    1850                                                        4270   -4.67    0.00  1.0000
  -8  14  -3     397    1450                                                        -450    4.66    0.00  1.0000
 -14  -8  -3     207    1480                                                        1180   -4.66    0.00  1.0000
  -7  14  -3      12    1370                                                       -1100    0.82    0.00  1.0000
 -14  -7  -3      12    1420                                                       -2340   -0.81    0.00  1.0000
  -6  14  -3    4610    1440                                                        5639   -1.68    0.00  1.0000
 -14  -6  -3    1374    1500                                                        1960    1.69    0.00  1.0000
  -5  14  -3     693    1250                                                         960   -1.09    0.00  1.0000
 -14  -5  -3      22    1440                                                        -840    1.09    0.00  1.0000
 -14  -4  -3    5650    1610                                                        6339   -1.04    0.00  1.0000
  -4  14  -3    6541    1380                                                        7279    1.04    0.00  1.0000
 -14  -3  -3       5    1510                                                       -1490    0.51    0.00  1.0000
  -3  14  -3    1079    1150                                                        1230   -0.52    0.00  1.0000
 -14  -2  -3    1771    1560                                                        1670   -0.28    0.00  1.0000
  -2  14  -3    2655    1160                                                        2530    0.29    0.00  1.0000
 -14  -1  -3    9727    1780                                                        9289    0.53    0.00  1.0000
  -1  14  -3    8755    1280                                                        8339   -0.53    0.00  1.0000
   0  14  -3   11200    1250                                                        8919    2.66    0.00  1.0000
 -14   0  -3   10723    1810                                                        8499   -2.66    0.00  1.0000
   1  14  -3     409    1010                                                       -1230    4.73    0.00  1.0000
 -14   1  -3     972    1590                                                         120   -4.73    0.00  1.0000
   2  14  -3     776    1070                                                          40    5.03    0.00  1.0000
 -14   2  -3     464    1570                                                        -620   -5.04    0.00  1.0000
   3  14  -3    7304    1220                                                        6429    1.23    0.00  1.0000
 -14   3  -3    4750    1690                                                        4050   -1.23    0.00  1.0000
   4  14  -3     263    1080                                                       -1250   -3.79    0.00  1.0000
 -14   4  -3     262    1590                                                        -850    3.79    0.00  1.0000
 -14   5  -3    4200    1690                                                        2610    3.21    0.00  1.0000
   5  14  -3     608    1160                                                         120   -3.20    0.00  1.0000
   6  14  -3       1    1240                                                          80    1.86    0.00  1.0000
 -14   6  -3      63    1680                                                       -2010   -1.86    0.00  1.0000
   7  14  -3     431    1230                                                         -50    4.85    0.00  1.0000
 -14   7  -3    1536    1810                                                         340   -4.85    0.00  1.0000
 -14   8  -3     246    1730                                                       -1000   -3.66    0.00  1.0000
   8  14  -3    3785    1320                                                        2100    3.67    0.00  1.0000
 -14   9  -3      39    1740                                                          40   -0.01    0.00  1.0000
   9  14  -3    1497    1470                                                        1500    0.01    0.00  1.0000
 -14  10  -3   12548    2120                                                       12109   -0.46    0.00  1.0000
  10  14  -3   14226    1840                                                       13759    0.46    0.00  1.0000
  11  14  -3   10366    1940                                                       11939    1.74    0.00  1.0000
 -14  11  -3    7572    2150                                                        8929   -1.75    0.00  1.0000
  12  14  -3    5251    1850                                                        4460    1.33    0.00  1.0000
 -14  12  -3    1391    1950                                                        1000   -1.32    0.00  1.0000
  13  14  -3    3078    1950                                                        2980   -0.21    0.00  1.0000
 -14  13  -3    3578    1990                                                        3470    0.21    0.00  1.0000
 -13 -14  -3       1    1880                                                       -3480   -0.21    0.00  1.0000
 -14  14  -3    3428    2050                                                        2610    1.74    0.00  1.0000
  14  14  -3    2642    2050                                                        1930   -1.75    0.00  1.0000
 -14 -14  -3     287    1620                                                          90   -1.74    0.00  1.0000
 -13  15  -3     234    1810                                                         470    1.49    0.00  1.0000
 -12  15  -3     113    1760                                                         920    4.60    0.00  1.0000
 -15 -12  -3    1992    1560                                                        4140   -4.61    0.00  1.0000
 -15 -11  -3    5387    1640                                                        5399    0.02    0.00  1.0000
 -11  15  -3    6558    1850                                                        6569   -0.02    0.00  1.0000
 -15 -10  -3    7713    1700                                                        7609    0.14    0.00  1.0000
 -10  15  -3    7707    1770                                                        7599   -0.14    0.00  1.0000
  -9  15  -3    1462    1580                                                        1290    0.54    0.00  1.0000
 -15  -9  -3     989    1540                                                         850   -0.54    0.00  1.0000
 -15  -8  -3      50    1590                                                       -1070   -1.65    0.00  1.0000
  -8  15  -3    1472    1500                                                         980    1.65    0.00  1.0000
 -15  -7  -3       0    1480                                                       -2340   -0.04    0.00  1.0000
  -7  15  -3    1467    1450                                                        1480    0.04    0.00  1.0000
 -15  -6  -3     114    1540                                                         270    1.34    0.00  1.0000
  -6  15  -3      10    1320                                                          80   -1.34    0.00  1.0000
 -15  -5  -3    5237    1660                                                        5119   -0.19    0.00  1.0000
  -5  15  -3    4960    1390                                                        4850    0.18    0.00  1.0000
  -4  15  -3     311    1260                                                         530    1.26    0.00  1.0000
 -15  -4  -3    2316    1600                                                        2860   -1.25    0.00  1.0000
  -3  15  -3     398    1140                                                         570   -0.92    0.00  1.0000
 -15  -3  -3     706    1590                                                         930    0.92    0.00  1.0000
  -2  15  -3    4309    1180                                                        3420   -1.67    0.00  1.0000
 -15  -2  -3      52    1570                                                         -20    1.68    0.00  1.0000
 -15  -1  -3     587    1670                                                         810    0.99    0.00  1.0000
  -1  15  -3     812    1050                                                        1070   -0.99    0.00  1.0000
 -15   0  -3       6    1670                                                       -3290   -0.58    0.00  1.0000
   0  15  -3       6    1060                                                        -280    0.58    0.00  1.0000
   1  15  -3    2237    1110                                                        1700    1.42    0.00  1.0000
 -15   1  -3     910    1690                                                         580   -1.42    0.00  1.0000
 -15   2  -3    6188    1860                                                        8019   -2.54    0.00  1.0000
   2  15  -3    8777    1430                                                       10929    2.54    0.00  1.0000
   3  15  -3     347    1100                                                        1140    3.54    0.00  1.0000
 -15   3  -3    1017    1700                                                        2210   -3.53    0.00  1.0000
   4  15  -3     151    1100                                                        -240    2.87    0.00  1.0000
 -15   4  -3    3108    1700                                                        1890   -2.87    0.00  1.0000
 -15   5  -3    1761    1740                                                        2330   -1.47    0.00  1.0000
   5  15  -3     140    1220                                                         330    1.48    0.00  1.0000
   6  15  -3     140    1260                                                       -1120    2.77    0.00  1.0000
 -15   6  -3     140    1790                                                         -20   -2.76    0.00  1.0000
   7  15  -3    2364    1360                                                        3530    2.52    0.00  1.0000
 -15   7  -3    1621    1880                                                        2610   -2.53    0.00  1.0000
 -15   8  -3    2268    1820                                                        2630   -0.85    0.00  1.0000
   8  15  -3     598    1370                                                         790    0.85    0.00  1.0000
 -15   9  -3     452    1780                                                        1230    3.23    0.00  1.0000
   9  15  -3     645    1470                                                        1540   -3.24    0.00  1.0000
 -15  10  -3   12468    2100                                                        8939    4.00    0.00  1.0000
  10  15  -3   12830    1750                                                        9249   -4.00    0.00  1.0000
  11  15  -3    3947    1800                                                        4760   -1.44    0.00  1.0000
 -15  11  -3    5023    2000                                                        5939    1.45    0.00  1.0000
  12  15  -3    1386    1880                                                        1740    1.05    0.00  1.0000
 -15  12  -3    4986    2070                                                        5639   -1.05    0.00  1.0000
  13  15  -3    7748    2090                                                        6569    1.63    0.00  1.0000
 -16 -12  -3    1168    1570                                                       -1740   -7.99    0.00  1.0000
 -12  16  -3    6062    1850                                                        1910    7.98    0.00  1.0000
 -11  16  -3     948    1740                                                        1720    2.50    0.00  1.0000
 -16 -11  -3     113    1600                                                       -1160   -2.49    0.00  1.0000
 -16 -10  -3     486    1580                                                         370   -0.66    0.00  1.0000
 -10  16  -3       8    1590                                                       -2310    0.66    0.00  1.0000
  -9  16  -3       4    1540                                                       -1770   -0.48    0.00  1.0000
 -16  -9  -3       4    1620                                                       -1340    0.48    0.00  1.0000
 -16  -8  -3    7614    1790                                                        6769   -1.16    0.00  1.0000
  -8  16  -3    9727    1710                                                        8769    1.16    0.00  1.0000
 -16  -7  -3   11133    2030                                                       12759   -1.74    0.00  1.0000
  -7  16  -3   16837    2000                                                       18818    1.73    0.00  1.0000
 -16  -6  -3      24    1580                                                       -1320   -1.15    0.00  1.0000
  -6  16  -3     611    1380                                                         880    1.16    0.00  1.0000
  -5  16  -3     149    1290                                                        -750    2.85    0.00  1.0000
 -16  -5  -3     149    1620                                                        -320   -2.86    0.00  1.0000
  -5  16   3     149     910                                                        -240    2.85    0.00  1.0000
  -4  16  -3    1273    1290                                                        2400    3.11    0.00  1.0000
 -16  -4  -3     130    1650                                                         610   -3.11    0.00  1.0000
 -16  -3  -3     462    1620                                                         210   -1.64    0.00  1.0000
  -3  16  -3      49    1180                                                       -1240    1.63    0.00  1.0000
  -2  16  -3     839    1130                                                         860   -0.08    0.00  1.0000
 -16  -2  -3    4286    1720                                                        4330    0.08    0.00  1.0000
 -16  -1  -3    5346    1730                                                        6239   -1.37    0.00  1.0000
  -1  16  -3    2338    1190                                                        2940    1.37    0.00  1.0000
   0  16  -3      53    1110                                                       -1170    1.70    0.00  1.0000
 -16   0  -3      53    1730                                                        -740   -1.71    0.00  1.0000
   1  16  -3    5696    1260                                                        6079    0.58    0.00  1.0000
 -16   1  -3    3005    1900                                                        3280   -0.57    0.00  1.0000
   2  16  -3       2    1130                                                       -2340    0.34    0.00  1.0000
 -16   2  -3      40    1800                                                          60   -0.34    0.00  1.0000
 -16   3  -3    2370    1800                                                        1390   -2.67    0.00  1.0000
   3  16  -3     130    1100                                                        -740    2.67    0.00  1.0000
   4  16  -3     330    1210                                                        1320    4.25    0.00  1.0000
 -16   4  -3    2268    1860                                                        4330   -4.25    0.00  1.0000
   5  16  -3    1580    1260                                                        1480    0.30    0.00  1.0000
 -16   5  -3    1934    1820                                                        1820   -0.31    0.00  1.0000
   6  16  -3    1404    1310                                                        2560   -3.07    0.00  1.0000
 -16   6  -3       4    1810                                                         230    3.07    0.00  1.0000
 -16   7  -3      53    1880                                                         680    4.39    0.00  1.0000
   7  16  -3     149    1320                                                         960   -4.39    0.00  1.0000
   8  16  -3    1293    1420                                                        2320   -2.85    0.00  1.0000
 -16   8  -3     150    1860                                                        -980    2.86    0.00  1.0000
 -16   9  -3    2120    1910                                                        1290    2.37    0.00  1.0000
   9  16  -3     102    1460                                                        -830   -2.36    0.00  1.0000
 -16  10  -3    1188    2040                                                        1910    2.16    0.00  1.0000
  10  16  -3    1767    1620                                                        2630   -2.16    0.00  1.0000
 -16  11  -3       6    1920                                                       -2180   -0.57    0.00  1.0000
  11  16  -3    1171    1780                                                        1010    0.57    0.00  1.0000
 -16  12  -3      26    2010                                                         110   -3.64    0.00  1.0000
  12  16  -3    1223    1890                                                        2550    3.63    0.00  1.0000
 -11  17  -3       0    1700                                                       -2920   -0.14    0.00  1.0000
 -17 -11  -3       0    1740                                                       -1280    0.14    0.00  1.0000
 -17 -10  -3    4278    1820                                                        4120    0.29    0.00  1.0000
 -10  17  -3    9951    1870                                                        9709   -0.29    0.00  1.0000
  -9  17  -3    6043    1830                                                        7689   -2.33    0.00  1.0000
 -17  -9  -3   10210    1950                                                       12319    2.32    0.00  1.0000
  -8  17  -3   10381    1700                                                        8439   -2.34    0.00  1.0000
 -17  -8  -3    4568    1760                                                        3310    2.35    0.00  1.0000
  -7  17  -3     110    1440                                                         260   -1.32    0.00  1.0000
 -17  -7  -3      32    1650                                                       -1260    1.32    0.00  1.0000
 -17  -6  -3   11233    1950                                                       11829    0.65    0.00  1.0000
  -6  17  -3   11479    1680                                                       12079   -0.65    0.00  1.0000
  -6  17   3   10504    1360                                                       11079   -0.65    0.00  1.0000
  -5  17  -3    4069    1430                                                        4370    0.54    0.00  1.0000
 -17  -5  -3     554    1730                                                         670   -0.55    0.00  1.0000
  -4  17  -3    5793    1380                                                        5639   -0.24    0.00  1.0000
 -17  -4  -3    8352    1840                                                        8169    0.23    0.00  1.0000
  -3  17  -3    9796    1530                                                       11059   -1.45    0.00  1.0000
 -17  -3  -3   12694    2010                                                       14129    1.45    0.00  1.0000
 -17  -2  -3    4535    1740                                                        2550    3.94    0.00  1.0000
  -2  17  -3     284    1160                                                        -100   -3.94    0.00  1.0000
 -17  -1  -3    2505    1790                                                        1350    3.11    0.00  1.0000
  -1  17  -3    2825    1170                                                        1590   -3.10    0.00  1.0000
   0  17  -3    8110    1480                                                       10509   -2.91    0.00  1.0000
 -17   0  -3    7576    1920                                                        9899    2.91    0.00  1.0000
   1  17  -3     235    1140                                                         780   -2.95    0.00  1.0000
 -17   1  -3      51    1790                                                         390    2.94    0.00  1.0000
 -17   2  -3     128    1830                                                       -1350    2.65    0.00  1.0000
   2  17  -3     772    1200                                                        1530   -2.65    0.00  1.0000
 -17   3  -3   10153    2110                                                        9439   -0.84    0.00  1.0000
   3  17  -3    9028    1390                                                        8359    0.84    0.00  1.0000
   4  17  -3    6483    1470                                                       10139    4.72    0.00  1.0000
 -17   4  -3    4863    2130                                                        8079   -4.71    0.00  1.0000
   5  17  -3    2060    1300                                                        3370    2.96    0.00  1.0000
 -17   5  -3    1209    1930                                                        2250   -2.96    0.00  1.0000
   6  17  -3    5206    1470                                                        6109   -1.40    0.00  1.0000
 -17   6  -3    6826    2010                                                        7859    1.41    0.00  1.0000
 -17   7  -3    8741    2020                                                        6489    3.02    0.00  1.0000
   7  17  -3    7728    1480                                                        5619   -3.03    0.00  1.0000
 -17   8  -3    1449    1920                                                        1860    1.18    0.00  1.0000
   8  17  -3    2243    1470                                                        2750   -1.19    0.00  1.0000
 -17   9  -3    5876    2160                                                        5079   -1.26    0.00  1.0000
   9  17  -3    8376    1670                                                        7419    1.26    0.00  1.0000
  10  17  -3    2674    1650                                                        3310    1.36    0.00  1.0000
 -17  10  -3    2091    2320                                                        2660   -1.37    0.00  1.0000
  11  17  -3      74    1780                                                        -950    2.01    0.00  1.0000
 -17  11  -3      74    1940                                                         -90   -2.00    0.00  1.0000
  -9  18  -3    1943    1660                                                        1350    1.71    0.00  1.0000
 -18  -9  -3      54    1800                                                        -150   -1.72    0.00  1.0000
 -18  -8  -3       1    1780                                                        -200    0.22    0.00  1.0000
  -8  18  -3       1    1550                                                         -90   -0.22    0.00  1.0000
  -8  18   3     817    1260                                                         870   -0.21    0.00  1.0000
  -7  18  -3    4906    1490                                                        4600   -0.52    0.00  1.0000
 -18  -7  -3    2505    1830                                                        2290    0.51    0.00  1.0000
  -6  18  -3   12936    1730                                                       11929    1.06    0.00  1.0000
 -18  -6  -3   13602    2050                                                       12569   -1.06    0.00  1.0000
 -18  -5  -3    1895    1780                                                        2280   -0.99    0.00  1.0000
  -5  18  -3    2223    1410                                                        2640    0.99    0.00  1.0000
  -4  18  -3    1001    1260                                                        1010    0.03    0.00  1.0000
 -18  -4  -3    2973    1820                                                        2990   -0.04    0.00  1.0000
 -18  -3  -3    7440    1930                                                        7099   -0.47    0.00  1.0000
  -3  18  -3    8569    1410                                                        8199    0.47    0.00  1.0000
 -18  -2  -3    3978    1880                                                        3920    0.11    0.00  1.0000
  -2  18  -3    3143    1230                                                        3090   -0.11    0.00  1.0000
  -1  18  -3    4775    1240                                                        5299    0.86    0.00  1.0000
 -18  -1  -3      94    1780                                                         180   -0.86    0.00  1.0000
 -18   0  -3   11635    2120                                                       11309   -0.36    0.00  1.0000
   0  18  -3   15118    1640                                                       14749    0.35    0.00  1.0000
 -18   1  -3    5583    1970                                                        6289   -1.07    0.00  1.0000
   1  18  -3    1621    1240                                                        2010    1.07    0.00  1.0000
   2  18  -3    9074    1430                                                        8989   -0.10    0.00  1.0000
 -18   2  -3    8847    2080                                                        8759    0.11    0.00  1.0000
   3  18  -3    5604    1350                                                        5369    0.37    0.00  1.0000
 -18   3  -3    7124    1990                                                        6859   -0.37    0.00  1.0000
 -18   4  -3    6740    2020                                                        7089   -0.49    0.00  1.0000
   4  18  -3    1767    1300                                                        1950    0.50    0.00  1.0000
   5  18  -3     701    1320                                                         870   -0.70    0.00  1.0000
 -18   5  -3       9    1920                                                        -470    0.70    0.00  1.0000
   6  18  -3     616    1370                                                        1840   -4.22    0.00  1.0000
 -18   6  -3     833    1960                                                        2200    4.22    0.00  1.0000
   7  18  -3    3181    1390                                                        1680   -3.60    0.00  1.0000
 -18   7  -3     238    1970                                                       -1640    3.60    0.00  1.0000
   8  18  -3       0    1500                                                        -350   -0.02    0.00  1.0000
 -18   8  -3    1665    2920                                                        1660    0.01    0.00  1.0000
   9  18  -3      46    1570                                                         170    4.63    0.00  1.0000
 -18   9  -3     392    2000                                                       -1340   -4.63    0.00  1.0000
 -19  -7  -3    5465    1930                                                        4830    1.03    0.00  1.0000
  -7  19  -3    7051    1590                                                        6329   -1.03    0.00  1.0000
 -19  -6  -3       6    1830                                                        -190   -0.58    0.00  1.0000
  -6  19  -3       6    1470                                                        -100    0.58    0.00  1.0000
 -19  -5  -3      12    1800                                                       -1580    0.80    0.00  1.0000
  -5  19  -3     108    1280                                                         190   -0.79    0.00  1.0000
  -4  19  -3      50    1260                                                        -220   -1.65    0.00  1.0000
 -19  -4  -3      49    1830                                                        -850    1.64    0.00  1.0000
 -19  -3  -3    2733    1880                                                        2960    0.50    0.00  1.0000
  -3  19  -3    4006    1300                                                        4280   -0.50    0.00  1.0000
  -2  19  -3       0    1150                                                        -880   -0.06    0.00  1.0000
 -19  -2  -3    4174    1940                                                        4140    0.06    0.00  1.0000
 -19  -1  -3    1821    1910                                                        2210   -1.01    0.00  1.0000
  -1  19  -3     176    1250                                                         310    1.01    0.00  1.0000
 -19   0  -3    5880    2010                                                        6449    0.85    0.00  1.0000
   0  19  -3    3219    1290                                                        3640   -0.84    0.00  1.0000
 -19   1  -3    5839    2020                                                        6059   -0.33    0.00  1.0000
   1  19  -3    8988    1470                                                        9259    0.33    0.00  1.0000
   2  19  -3    1771    1210                                                        1380   -1.15    0.00  1.0000
 -19   2  -3     127    1890                                                          40    1.16    0.00  1.0000
   3  19  -3    3945    1310                                                        4220   -0.50    0.00  1.0000
 -19   3  -3    4626    2100                                                        4920    0.50    0.00  1.0000
   4  19  -3    1614    1300                                                        1920   -0.85    0.00  1.0000
 -19   4  -3    1469    2080                                                        1760    0.85    0.00  1.0000
 -19   5  -3    9286    2990                                                       10429   -1.35    0.00  1.0000
   5  19  -3    5936    1510                                                        6859    1.35    0.00  1.0000
   6  19  -3   14716    1720                                                       13459    1.24    0.00  1.0000
 -19   6  -3   10296    2270                                                        9249   -1.24    0.00  1.0000
   7  19  -3    2701    1520                                                        4390    3.34    0.00  1.0000
 -19   7  -3     734    1980                                                        1710   -3.33    0.00  1.0000
 -20  -3  -3     143    1900                                                       -2530   -2.80    0.00  1.0000
  -3  20  -3     144    1170                                                       -1530    2.80    0.00  1.0000
  -2  20  -3     257    1250                                                        -530    3.75    0.00  1.0000
 -20  -2  -3    2155    1990                                                        3900   -3.75    0.00  1.0000
  -1  20  -3     146    1280                                                        1430    6.02    0.00  1.0000
 -20  -1  -3      25    1970                                                         430   -6.02    0.00  1.0000
   0  20  -3     276    1240                                                        -510    3.89    0.00  1.0000
 -20   0  -3     276    1980                                                        -170   -3.88    0.00  1.0000
   1  20  -3      18    1270                                                         500    4.25    0.00  1.0000
 -20   1  -3       5    1940                                                         420   -4.25    0.00  1.0000
 -20   2  -3    2312    2300                                                        2010   -0.76    0.00  1.0000
   2  20  -3    5543    1310                                                        5069    0.76    0.00  1.0000
 -20   3  -3    2812    2380                                                        2830    0.04    0.00  1.0000
   3  20  -3     434    1300                                                         440   -0.04    0.00  1.0000
   0   0  -4   72219    3860                                                       60384    5.38    0.00  1.0000
   0  -1  -4    2670     940                                                        5029    4.50    0.00  1.0000
  -1   0  -4    1547     990                                                        3430    4.50    0.00  1.0000
   1   0  -4    2738    1010                                                        5119    4.49    0.00  1.0000
   0   1  -4    1886     990                                                        3930    4.50    0.00  1.0000
   1  -1  -4       9     870                                                         680    5.39    0.00  1.0000
  -1  -1  -4     533     860                                                        -250    5.40    0.00  1.0000
   1   1  -4     532     950                                                        -340    5.39    0.00  1.0000
  -1   1  -4       0     920                                                         550    5.39    0.00  1.0000
  -2  -1  -4    3560     920                                                        2080   -3.29    0.00  1.0000
   1  -2  -4    3779     870                                                        2250   -3.28    0.00  1.0000
  -1   2  -4    3625    1130                                                        2130   -3.29    0.00  1.0000
   0  -2  -4   42199    2300                                                       32487   -5.89    0.00  1.0000
   2   0  -4   43702    2330                                                       33817   -5.88    0.00  1.0000
  -2   0  -4   38995    2390                                                       29687   -5.88    0.00  1.0000
   0   2  -4   41907    2450                                                       32237   -5.88    0.00  1.0000
   2  -1  -4   18144    1650                                                       18928   -0.67    0.00  1.0000
  -1  -2  -4   17958    1670                                                       18738   -0.67    0.00  1.0000
  -2   1  -4   18829    1810                                                       19628   -0.67    0.00  1.0000
   1   2  -4   17945    1750                                                       18728   -0.68    0.00  1.0000
   2  -2  -4    8322    1220                                                       10699   -2.85    0.00  1.0000
  -2   2  -4   10635    1360                                                       13299   -2.85    0.00  1.0000
   2   2  -4    9881    1300                                                       12459   -2.86    0.00  1.0000
  -2  -2  -4    8611    1240                                                       11029   -2.86    0.00  1.0000
   2  -3  -4    2672     890                                                        2970   -0.66    0.00  1.0000
   3   2  -4    1674     940                                                        1910   -0.65    0.00  1.0000
  -3  -2  -4    1721     940                                                        1960   -0.65    0.00  1.0000
  -2   3  -4    1711    1080                                                        1950   -0.65    0.00  1.0000
  -1   3  -4    1659     970                                                        2040   -1.04    0.00  1.0000
   1  -3  -4    1914     820                                                        2320   -1.03    0.00  1.0000
   3   1  -4    4056    1000                                                        4640   -1.04    0.00  1.0000
  -3  -1  -4    2407    1020                                                        2860   -1.03    0.00  1.0000
   3   0  -4    9628    1370                                                       11619   -2.26    0.00  1.0000
   0   3  -4    7366    1260                                                        9119   -2.26    0.00  1.0000
   0  -3  -4    8104    1130                                                        9939   -2.26    0.00  1.0000
  -3   0  -4   10024    1280                                                       12049   -2.26    0.00  1.0000
   1   3  -4     925    1000                                                        1780    2.75    0.00  1.0000
  -3   1  -4    2651    1200                                                        4000    2.75    0.00  1.0000
  -1  -3  -4    1975     880                                                        3160    2.75    0.00  1.0000
   3  -1  -4    2128     980                                                        3350    2.75    0.00  1.0000
  -3   2  -4    1941    1090                                                        2930    2.35    0.00  1.0000
  -2  -3  -4    1301     870                                                        2130    2.36    0.00  1.0000
   2   3  -4    1539     970                                                        2430    2.35    0.00  1.0000
   3  -2  -4    1009     940                                                        1750    2.36    0.00  1.0000
  -3   3  -4   55050    3940                                                       61474    3.11    0.00  1.0000
   3  -3  -4   54889    3860                                                       61314    3.12    0.00  1.0000
  -3  -3  -4   53997    3840                                                       60364    3.11    0.00  1.0000
   3   3  -4   50794    3880                                                       56984    3.12    0.00  1.0000
   4   3  -4    4293    1090                                                        4190    0.18    0.00  1.0000
  -3   4  -4    6497    1230                                                        6369    0.19    0.00  1.0000
   3  -4  -4    6540    1050                                                        6409    0.19    0.00  1.0000
  -4  -3  -4    7337    1070                                                        7199    0.19    0.00  1.0000
  -4  -2  -4   13133    1480                                                       14829   -1.68    0.00  1.0000
   2  -4  -4   13920    1520                                                       15668   -1.68    0.00  1.0000
   4   2  -4   14958    1560                                                       16768   -1.68    0.00  1.0000
  -2   4  -4   14149    1570                                                       15908   -1.68    0.00  1.0000
  -4  -1  -4    2984    1060                                                        2830   -0.33    0.00  1.0000
   1  -4  -4    1528     860                                                        1420   -0.33    0.00  1.0000
   4   1  -4     448     960                                                         390   -0.33    0.00  1.0000
  -1   4  -4    1983    1030                                                        1860   -0.33    0.00  1.0000
   4   0  -4    8637    1120                                                        8219   -0.53    0.00  1.0000
   0   4  -4    4865    1040                                                        4550   -0.54    0.00  1.0000
  -4   0  -4    5865    1130                                                        5519   -0.54    0.00  1.0000
   4  -1  -4   32485    2660                                                       33047   -0.36    0.00  1.0000
   1   4  -4   31175    2310                                                       31727   -0.36    0.00  1.0000
  -4   1  -4   33886    2740                                                       34467   -0.37    0.00  1.0000
  -1  -4  -4   23959    2310                                                       24448   -0.37    0.00  1.0000
  -2  -4  -4   22559    1780                                                       19288   -2.64    0.00  1.0000
  -4   2  -4   25880    1980                                                       22368   -2.64    0.00  1.0000
   2   4  -4   26241    1950                                                       22698   -2.65    0.00  1.0000
   4  -2  -4   25061    1860                                                       21608   -2.64    0.00  1.0000
   3   4  -4   12944    1410                                                       13549   -0.61    0.00  1.0000
   4  -3  -4   13598    1390                                                       14219   -0.62    0.00  1.0000
  -4   3  -4   12428    1510                                                       13019   -0.61    0.00  1.0000
   4  -4  -4    2359    1050                                                        2380    0.05    0.00  1.0000
  -4   4  -4    2118    1160                                                        2140    0.05    0.00  1.0000
  -4  -4  -4    2128     940                                                        2150    0.06    0.00  1.0000
   4   4  -4    1254    1040                                                        1270    0.05    0.00  1.0000
  -5  -4  -4   14933    1680                                                       18838    3.52    0.00  1.0000
  -4   5  -4   15645    1930                                                       19638    3.52    0.00  1.0000
   5   4  -4   13017    1640                                                       16678    3.52    0.00  1.0000
   4  -5  -4   13912    1790                                                       17688    3.52    0.00  1.0000
  -3   5  -4    6126    1280                                                        7539    2.00    0.00  1.0000
   5   3  -4    5069    1210                                                        6359    2.00    0.00  1.0000
   3  -5  -4    4755    1140                                                        6009    2.00    0.00  1.0000
  -5  -3  -4    5653    1130                                                        7009    1.99    0.00  1.0000
   2  -5  -4   13147    1220                                                       11779    1.43    0.00  1.0000
  -5  -2  -4   12174    1320                                                       10859    1.43    0.00  1.0000
  -2   5  -4   10910    1360                                                        9669    1.43    0.00  1.0000
   5   2  -4   14281    1370                                                       12849    1.44    0.00  1.0000
   5   1  -4   29783    2440                                                       33257    2.29    0.00  1.0000
  -1   5  -4   28743    2460                                                       32157    2.29    0.00  1.0000
  -5  -1  -4   27451    2410                                                       30787    2.29    0.00  1.0000
   1  -5  -4   28285    2260                                                       31667    2.28    0.00  1.0000
   5   0  -4   11488    1420                                                       14019    2.62    0.00  1.0000
   0   5  -4   10569    1450                                                       12999    2.62    0.00  1.0000
  -5   0  -4   11007    1840                                                       13489    2.62    0.00  1.0000
   0  -5  -4   10665    1220                                                       13109    2.62    0.00  1.0000
   5  -1  -4   18667    1830                                                       18128    0.46    0.00  1.0000
   1   5  -4   18285    1850                                                       17748    0.47    0.00  1.0000
  -5   1  -4   19565    1950                                                       19008    0.47    0.00  1.0000
  -1  -5  -4   21952    1590                                                       21368    0.46    0.00  1.0000
  -2  -5  -4     577     790                                                        1390   -3.10    0.00  1.0000
   5  -2  -4     177    1430                                                        -670   -3.11    0.00  1.0000
  -5   2  -4     176    1100                                                       -1410   -3.11    0.00  1.0000
   2   5  -4     176    1020                                                        -220   -3.10    0.00  1.0000
   5  -3  -4    1839    1110                                                        2090   -0.66    0.00  1.0000
   3   5  -4       8    1000                                                        -800   -0.66    0.00  1.0000
  -3  -5  -4     320     800                                                         430   -0.66    0.00  1.0000
  -5   3  -4    1623    1180                                                        1860   -0.66    0.00  1.0000
  -4  -5  -4   71989    4360                                                       69183    1.23    0.00  1.0000
  -5   4  -4   71213    4540                                                       68433    1.23    0.00  1.0000
   4   5  -4   71961    4470                                                       69153    1.24    0.00  1.0000
   5  -4  -4   75009    4480                                                       72143    1.23    0.00  1.0000
   5  -5  -4    1836    1230                                                        3600    4.01    0.00  1.0000
   5   5  -4    3145    1180                                                        5359    4.00    0.00  1.0000
  -5   5  -4    3052    1320                                                        5239    4.00    0.00  1.0000
  -5   6  -4   14381    1730                                                       16018   -1.55    0.00  1.0000
  -6  -5  -4   15704    1650                                                       17418   -1.56    0.00  1.0000
   5  -6  -4   14656    1740                                                       16308   -1.55    0.00  1.0000
   6   5  -4   16906    1900                                                       18678   -1.55    0.00  1.0000
  -6  -4  -4    3151    1070                                                        3350    0.41    0.00  1.0000
   6   4  -4    3461    1120                                                        3670    0.41    0.00  1.0000
  -4   6  -4    3483    1250                                                        3690    0.40    0.00  1.0000
   4  -6  -4    2978    1160                                                        3170    0.41    0.00  1.0000
   6   3  -4    6029    1200                                                        5589   -0.68    0.00  1.0000
   3  -6  -4    3651    1060                                                        3310   -0.68    0.00  1.0000
  -3   6  -4    6297    1270                                                        5849   -0.67    0.00  1.0000
  -6  -3  -4    4842    1110                                                        4450   -0.67    0.00  1.0000
  -6  -2  -4   20542    1980                                                       22218   -1.34    0.00  1.0000
   2  -6  -4   19282    1830                                                       20908   -1.34    0.00  1.0000
  -2   6  -4   20093    2050                                                       21758   -1.35    0.00  1.0000
   6   2  -4   19296    2010                                                       20928   -1.35    0.00  1.0000
  -1   6  -4    2140    1060                                                        1170   -2.82    0.00  1.0000
   6   1  -4    2196    1100                                                        1210   -2.82    0.00  1.0000
   1  -6  -4    5434     870                                                        3800   -2.82    0.00  1.0000
  -6  -1  -4    2208    1160                                                        1220   -2.82    0.00  1.0000
  -6   0  -4    4924    1260                                                        5999   -1.70    0.00  1.0000
   0   6  -4    3524    1100                                                        4440   -1.70    0.00  1.0000
   6   0  -4    4897    1240                                                        5969   -1.70    0.00  1.0000
   0  -6  -4    4061     870                                                        5039   -1.70    0.00  1.0000
  -6   1  -4    1973    1190                                                        2280   -0.78    0.00  1.0000
   1   6  -4    2076    1100                                                        2390   -0.78    0.00  1.0000
  -1  -6  -4    3657     780                                                        4070   -0.78    0.00  1.0000
   6  -1  -4    3327    1200                                                        3720   -0.77    0.00  1.0000
   6  -2  -4   28170    2120                                                       24028   -3.00    0.00  1.0000
  -6   2  -4   25986    2220                                                       22008   -3.00    0.00  1.0000
   2   6  -4   26600    2060                                                       22578   -3.00    0.00  1.0000
  -2  -6  -4   27307    1750                                                       23228   -3.00    0.00  1.0000
   3   6  -4    2532    1080                                                        1840   -1.73    0.00  1.0000
   6  -3  -4    5546    1200                                                        4500   -1.73    0.00  1.0000
  -6   3  -4    3626    1240                                                        2790   -1.73    0.00  1.0000
  -3  -6  -4    4161     820                                                        3260   -1.73    0.00  1.0000
  -6   4  -4    6022    1350                                                        5269   -1.17    0.00  1.0000
  -4  -6  -4    6720     900                                                        5919   -1.18    0.00  1.0000
   4   6  -4    5756    1100                                                        5019   -1.17    0.00  1.0000
   6  -4  -4    5929    1430                                                        5179   -1.18    0.00  1.0000
  -5  -6  -4    5590    1010                                                        7049    2.15    0.00  1.0000
   6  -5  -4    3019    1680                                                        4110    2.14    0.00  1.0000
  -6   5  -4    4580    1420                                                        5909    2.15    0.00  1.0000
   5   6  -4    7089    1270                                                        8719    2.15    0.00  1.0000
   6  -6  -4      19    1380                                                        -110   -1.02    0.00  1.0000
  -6   6  -4      19    1250                                                        -820   -1.02    0.00  1.0000
   6   6  -4      19    1090                                                        -420   -1.02    0.00  1.0000
  -6  -6  -4     480     920                                                         690   -1.02    0.00  1.0000
  -7  -6  -4    3035    1060                                                        3540   -1.03    0.00  1.0000
  -6   7  -4    1731    1410                                                        2120   -1.04    0.00  1.0000
   7   6  -4    2015    1210                                                        2430   -1.03    0.00  1.0000
   7   5  -4   14072    1530                                                       15368   -1.25    0.00  1.0000
   5  -7  -4    8856    1600                                                        9889   -1.25    0.00  1.0000
  -7  -5  -4    9645    1360                                                       10719   -1.24    0.00  1.0000
  -5   7  -4   11470    1610                                                       12639   -1.24    0.00  1.0000
   7   4  -4     423    1160                                                        1110    2.98    0.00  1.0000
  -4   7  -4     491    1190                                                        1220    2.98    0.00  1.0000
   4  -7  -4     361    1220                                                        1010    2.99    0.00  1.0000
  -7  -4  -4     147    1080                                                         620    2.99    0.00  1.0000
  -7  -3  -4    4929    1170                                                        3670    2.25    0.00  1.0000
  -3   7  -4    4641    1280                                                        3420    2.25    0.00  1.0000
   7   3  -4    4370    1190                                                        3190    2.25    0.00  1.0000
   3  -7  -4    3579    1350                                                        2520    2.25    0.00  1.0000
  -2   7  -4      18    1080                                                        -660    1.00    0.00  1.0000
   2  -7  -4    2924     970                                                        2480    1.00    0.00  1.0000
   7   2  -4    2476    1220                                                        2070    1.00    0.00  1.0000
  -7  -2  -4    1991    1180                                                        1630    0.99    0.00  1.0000
  -7  -1  -4      56    1170                                                        -390   -1.74    0.00  1.0000
   7   1  -4      55    1200                                                       -1000   -1.74    0.00  1.0000
  -1   7  -4    1965    1040                                                        1360   -1.74    0.00  1.0000
   1  -7  -4     822     870                                                         450   -1.74    0.00  1.0000
  -7   0  -4     613    1170                                                         950   -1.42    0.00  1.0000
   0  -7  -4     244     780                                                         470   -1.42    0.00  1.0000
   7   0  -4      37    1190                                                       -1300   -1.41    0.00  1.0000
   0   7  -4     678     990                                                        1030   -1.41    0.00  1.0000
  -7   1  -4    8022    1340                                                        6539    2.03    0.00  1.0000
   7  -1  -4    7698    1310                                                        6249    2.03    0.00  1.0000
  -1  -7  -4    6807     870                                                        5449    2.03    0.00  1.0000
   1   7  -4    7028    1160                                                        5649    2.03    0.00  1.0000
   7  -2  -4   14757    1620                                                       16048    1.22    0.00  1.0000
   2   7  -4   11750    1460                                                       12909    1.22    0.00  1.0000
  -2  -7  -4   11086    1240                                                       12209    1.22    0.00  1.0000
  -7   2  -4   11177    1600                                                       12309    1.22    0.00  1.0000
   7  -3  -4    4007    1290                                                        3570    0.83    0.00  1.0000
  -7   3  -4    4823    1360                                                        4340    0.83    0.00  1.0000
   3   7  -4    7275    1190                                                        6679    0.83    0.00  1.0000
   7  -4  -4    3490    1410                                                        4360   -1.62    0.00  1.0000
  -4  -7  -4    4056     860                                                        4990   -1.63    0.00  1.0000
   4   7  -4    3787    1170                                                        4690   -1.62    0.00  1.0000
  -7   4  -4    6490    1420                                                        7659   -1.63    0.00  1.0000
   7  -5  -4   17801    1920                                                       17638   -0.14    0.00  1.0000
   5   7  -4   17489    1680                                                       17328   -0.14    0.00  1.0000
  -5  -7  -4   17037    1500                                                       16878   -0.14    0.00  1.0000
  -7   5  -4   15445    1810                                                       15288   -0.15    0.00  1.0000
   6   7  -4     844    1190                                                         540   -1.36    0.00  1.0000
  -6  -7  -4    1412     920                                                        1010   -1.36    0.00  1.0000
  -7   6  -4     534    1300                                                         300   -1.36    0.00  1.0000
  -7   7  -4      82    1340                                                        -230   -2.11    0.00  1.0000
   7   7  -4    1653    1180                                                        2470   -2.11    0.00  1.0000
  -7  -7  -4     296     940                                                         690   -2.12    0.00  1.0000
   8   7  -4    1643    1330                                                        2970   -3.26    0.00  1.0000
  -7   8  -4     477    1390                                                        1280   -3.26    0.00  1.0000
  -8  -7  -4    1615    1100                                                        2930   -3.26    0.00  1.0000
   8   6  -4   30548    2580                                                       29227   -0.89    0.00  1.0000
  -6   8  -4   33338    2690                                                       31957   -0.89    0.00  1.0000
  -8  -6  -4   32581    2410                                                       31217   -0.89    0.00  1.0000
  -5   8  -4    3939    1330                                                        3240   -1.37    0.00  1.0000
   8   5  -4    5058    1380                                                        4260   -1.37    0.00  1.0000
  -8  -5  -4    4568    1180                                                        3810   -1.37    0.00  1.0000
  -4   8  -4      26    1240                                                        -470    1.18    0.00  1.0000
   8   4  -4      26    1290                                                        -980    1.19    0.00  1.0000
  -8  -4  -4       7    1100                                                          60    1.18    0.00  1.0000
   4  -8  -4      26    1270                                                        -490    1.19    0.00  1.0000
  -3   8  -4    1332    1180                                                        1200   -0.43    0.00  1.0000
   8   3  -4    4924    1310                                                        4670   -0.43    0.00  1.0000
   3  -8  -4    3259    1250                                                        3050   -0.43    0.00  1.0000
  -8  -3  -4    5929    1530                                                        5649   -0.43    0.00  1.0000
  -8  -2  -4    1249    1200                                                        1630   -1.18    0.00  1.0000
   8   2  -4    2592    1320                                                        3130   -1.18    0.00  1.0000
   2  -8  -4       4     980                                                          10   -1.18    0.00  1.0000
  -2   8  -4    1584    1190                                                        2010   -1.18    0.00  1.0000
   8   1  -4   38782    2670                                                       35366   -2.07    0.00  1.0000
   1  -8  -4   37230    2350                                                       33887   -2.07    0.00  1.0000
  -1   8  -4   36343    2560                                                       33037   -2.08    0.00  1.0000
  -8  -1  -4   33488    2600                                                       30327   -2.07    0.00  1.0000
   0  -8  -4    1315     890                                                        2580   -3.40    0.00  1.0000
  -8   0  -4    3236    1350                                                        5099   -3.39    0.00  1.0000
   8   0  -4    2158    1340                                                        3720   -3.40    0.00  1.0000
   0   8  -4    1295    1070                                                        2550   -3.39    0.00  1.0000
  -8   1  -4       2    1270                                                        -880   -0.35    0.00  1.0000
  -1  -8  -4    1440     770                                                        1330   -0.34    0.00  1.0000
   1   8  -4       2     980                                                        -540   -0.35    0.00  1.0000
   8  -1  -4     623    1340                                                         550   -0.35    0.00  1.0000
   8  -2  -4    2381    1410                                                        2040    0.85    0.00  1.0000
  -8   2  -4    4522    1380                                                        4050    0.84    0.00  1.0000
  -2  -8  -4    4131     770                                                        3680    0.84    0.00  1.0000
   2   8  -4     905    1030                                                         700    0.85    0.00  1.0000
  -3  -8  -4    6590     780                                                        5299    1.96    0.00  1.0000
   3   8  -4    2653    1040                                                        1860    1.96    0.00  1.0000
  -8   3  -4      70    1340                                                        -340    1.96    0.00  1.0000
   8  -3  -4    4836    1460                                                        3740    1.96    0.00  1.0000
  -4  -8  -4   19570    1600                                                       20678   -0.91    0.00  1.0000
   4   8  -4   17673    2010                                                       18728   -0.91    0.00  1.0000
   8  -4  -4   20422    2160                                                       21548   -0.91    0.00  1.0000
  -8   4  -4   21503    2080                                                       22658   -0.91    0.00  1.0000
  -5  -8  -4    1855     790                                                        1330   -1.54    0.00  1.0000
   5   8  -4    2229    1120                                                        1650   -1.54    0.00  1.0000
   8  -5  -4     459    1480                                                         220   -1.54    0.00  1.0000
  -8   5  -4    1604    1410                                                        1120   -1.54    0.00  1.0000
   6   8  -4   15956    1730                                                       16408   -0.42    0.00  1.0000
  -6  -8  -4   16750    1510                                                       17208   -0.41    0.00  1.0000
  -8   6  -4   16188    1890                                                       16638   -0.41    0.00  1.0000
  -7  -8  -4    1961     910                                                        1350    1.76    0.00  1.0000
  -8   7  -4      57    1380                                                        -520    1.76    0.00  1.0000
   7   8  -4     561    1230                                                         260    1.77    0.00  1.0000
   8   8  -4    1093    1250                                                        1650    1.77    0.00  1.0000
  -8   8  -4     113    1460                                                         330    1.76    0.00  1.0000
  -8  -8  -4     503    1000                                                         900    1.77    0.00  1.0000
   9   8  -4    1386    1460                                                        1110    0.92    0.00  1.0000
  -9  -8  -4      15    1090                                                       -1020    0.91    0.00  1.0000
  -8   9  -4      15    1480                                                        -350    0.91    0.00  1.0000
   9   7  -4    2134    1420                                                        1080   -3.12    0.00  1.0000
  -7   9  -4    2246    1440                                                        1160   -3.12    0.00  1.0000
  -9  -7  -4    2700    1160                                                        1490   -3.12    0.00  1.0000
  -6   9  -4   11166    1650                                                       10229    1.06    0.00  1.0000
  -9  -6  -4   12199    1450                                                       11219    1.06    0.00  1.0000
   9   6  -4   13286    1640                                                       12259    1.06    0.00  1.0000
  -9  -5  -4    1111    1200                                                         700    1.61    0.00  1.0000
   9   5  -4     557    1310                                                         280    1.60    0.00  1.0000
  -5   9  -4    1419    1280                                                         950    1.60    0.00  1.0000
  -4   9  -4      30    1200                                                         260    2.49    0.00  1.0000
   9   4  -4     487    1340                                                        1070    2.49    0.00  1.0000
  -3   9  -4      33    1160                                                        -810    1.35    0.00  1.0000
   9   3  -4      33    1340                                                        -660    1.35    0.00  1.0000
  -9  -3  -4      33    1170                                                        -740    1.35    0.00  1.0000
  -9  -2  -4     649    1220                                                        1150    1.97    0.00  1.0000
   9   2  -4    1044    1360                                                        1660    1.97    0.00  1.0000
  -2   9  -4    1307    1160                                                        1990    1.98    0.00  1.0000
   2  -9  -4      71    1180                                                        -670    1.97    0.00  1.0000
  -1   9  -4   40173    2600                                                       35226    2.98    0.00  1.0000
   1  -9  -4   35514    2490                                                       30867    2.98    0.00  1.0000
   9   1  -4   40455    2850                                                       35486    2.98    0.00  1.0000
  -9  -1  -4   38685    2670                                                       33837    2.98    0.00  1.0000
   0   9  -4   10147    1290                                                        9289   -1.02    0.00  1.0000
   9   0  -4    9443    1610                                                        8619   -1.01    0.00  1.0000
  -9   0  -4    8892    1470                                                        8089   -1.02    0.00  1.0000
   0  -9  -4    9491    1130                                                        8659   -1.02    0.00  1.0000
  -9   1  -4    1582    1350                                                        2230   -1.74    0.00  1.0000
  -1  -9  -4    1348     840                                                        1950   -1.74    0.00  1.0000
   9  -1  -4    1982    1500                                                        2700   -1.74    0.00  1.0000
   1   9  -4       6    1010                                                         100   -1.74    0.00  1.0000
  -2  -9  -4    8774     910                                                        8869    0.12    0.00  1.0000
   9  -2  -4    5463    1620                                                        5539    0.12    0.00  1.0000
   2   9  -4    5822    1200                                                        5899    0.12    0.00  1.0000
  -9   2  -4    6881    1490                                                        6969    0.12    0.00  1.0000
   9  -3  -4     815    1610                                                        1800    3.25    0.00  1.0000
  -3  -9  -4     566     670                                                        1420    3.25    0.00  1.0000
   3   9  -4    1288    1120                                                        2480    3.25    0.00  1.0000
  -9   3  -4     655    1360                                                        1560    3.25    0.00  1.0000
  -9   4  -4   34144    2950                                                       35626    0.93    0.00  1.0000
  -4  -9  -4   35385    2400                                                       36896    0.93    0.00  1.0000
   4   9  -4   34736    2750                                                       36226    0.92    0.00  1.0000
   9  -4  -4   36687    3120                                                       38216    0.92    0.00  1.0000
  -5  -9  -4    4822     830                                                        6469   -2.57    0.00  1.0000
  -9   5  -4    3071    1520                                                        4410   -2.57    0.00  1.0000
   5   9  -4    3459    1310                                                        4870   -2.56    0.00  1.0000
  -6  -9  -4     991     760                                                         410   -2.63    0.00  1.0000
   6   9  -4     126    1210                                                        -250   -2.63    0.00  1.0000
  -9   6  -4     850    1500                                                         320   -2.63    0.00  1.0000
  -9   7  -4    5569    1660                                                        6379    1.23    0.00  1.0000
   7   9  -4    7862    1370                                                        8819    1.23    0.00  1.0000
  -7  -9  -4    7109    1040                                                        8019    1.22    0.00  1.0000
   8   9  -4    4358    1430                                                        5159    1.36    0.00  1.0000
  -9   8  -4    2059    1570                                                        2620    1.36    0.00  1.0000
  -8  -9  -4    2505     950                                                        3120    1.36    0.00  1.0000
   9   9  -4   10404    1560                                                        9849    0.64    0.00  1.0000
  -9   9  -4    7164    1690                                                        6699    0.65    0.00  1.0000
  -9  -9  -4    8833    1280                                                        8319    0.65    0.00  1.0000
  -9  10  -4      74    1540                                                        -360   -2.02    0.00  1.0000
  10   9  -4      39    1520                                                         220   -2.02    0.00  1.0000
 -10  -9  -4      38    1140                                                         220   -2.02    0.00  1.0000
  10   8  -4    1503    1440                                                        1450   -0.16    0.00  1.0000
 -10  -8  -4    2429    1220                                                        2360   -0.16    0.00  1.0000
  -8  10  -4    1219    1540                                                        1170   -0.17    0.00  1.0000
 -10  -7  -4    1298    1200                                                        2040   -2.14    0.00  1.0000
  -7  10  -4      62    1410                                                         290   -2.14    0.00  1.0000
  10   7  -4     235    1470                                                         600   -2.14    0.00  1.0000
 -10  -6  -4    3757    1230                                                        3210    1.08    0.00  1.0000
  -6  10  -4    4114    1460                                                        3540    1.09    0.00  1.0000
  10   6  -4      21    1460                                                        -510    1.08    0.00  1.0000
 -10  -5  -4    1029    1250                                                         930    0.37    0.00  1.0000
  -5  10  -4    2474    1370                                                        2320    0.37    0.00  1.0000
  10   5  -4    1468    1450                                                        1350    0.37    0.00  1.0000
 -10  -4  -4    1759    1300                                                        1350   -1.22    0.00  1.0000
  10   4  -4    1883    1480                                                        1460   -1.21    0.00  1.0000
  -4  10  -4     746    1290                                                         490   -1.21    0.00  1.0000
  10   3  -4    2605    1460                                                        3540   -1.98    0.00  1.0000
  -3  10  -4     358    1160                                                         750   -1.98    0.00  1.0000
 -10  -3  -4     768    1320                                                        1310   -1.98    0.00  1.0000
  -2  10  -4    2808    1220                                                        3230   -0.90    0.00  1.0000
  10   2  -4    4416    1580                                                        4940   -0.90    0.00  1.0000
 -10  -2  -4    3378    1390                                                        3840   -0.90    0.00  1.0000
 -10  -1  -4    5323    1540                                                        5589    0.42    0.00  1.0000
  10   1  -4    8731    1730                                                        9069    0.42    0.00  1.0000
  -1  10  -4   10597    1360                                                       10969    0.42    0.00  1.0000
 -10   0  -4    9374    1680                                                       12619   -3.63    0.00  1.0000
   0 -10  -4    3802    1230                                                        5959   -3.63    0.00  1.0000
  10   0  -4    7260    1730                                                       10149   -3.63    0.00  1.0000
   0  10  -4    6955    1400                                                        9789   -3.63    0.00  1.0000
   1  10  -4    2918    1100                                                         950   -5.42    0.00  1.0000
  10  -1  -4    2139    1590                                                         530   -5.43    0.00  1.0000
 -10   1  -4     539    1370                                                       -1460   -5.43    0.00  1.0000
  -1 -10  -4     539     840                                                        -180   -5.42    0.00  1.0000
  -2 -10  -4    4185     860                                                        5469   -2.16    0.00  1.0000
   2  10  -4    4131    1170                                                        5409   -2.17    0.00  1.0000
 -10   2  -4    4895    1560                                                        6279   -2.17    0.00  1.0000
  10  -2  -4    4931    1770                                                        6319   -2.17    0.00  1.0000
   3  10  -4     115    1130                                                        -980    2.51    0.00  1.0000
  10  -3  -4    1323    1700                                                        2220    2.51    0.00  1.0000
  -3 -10  -4     799     660                                                        1520    2.51    0.00  1.0000
 -10   3  -4    1543    1530                                                        2500    2.51    0.00  1.0000
  -4 -10  -4    2753     650                                                        2200    1.30    0.00  1.0000
 -10   4  -4     729    1480                                                         460    1.30    0.00  1.0000
   4  10  -4    3308    1210                                                        2700    1.30    0.00  1.0000
  -5 -10  -4    2265     660                                                        1510   -2.04    0.00  1.0000
 -10   5  -4      76    1420                                                        -660   -2.04    0.00  1.0000
   5  10  -4      76    1180                                                        -150   -2.04    0.00  1.0000
   6  10  -4     448    1210                                                        1270   -3.38    0.00  1.0000
  -6 -10  -4     209     640                                                        -630   -3.38    0.00  1.0000
 -10   6  -4     209    1490                                                       -1050   -3.38    0.00  1.0000
 -10   7  -4      52    1540                                                       -1780    1.69    0.00  1.0000
   7  10  -4     938    1280                                                        1430    1.68    0.00  1.0000
  -7 -10  -4     620     740                                                        1030    1.68    0.00  1.0000
   8  10  -4    7822    1400                                                        6579    1.71    0.00  1.0000
 -10   8  -4    7578    1700                                                        6359    1.71    0.00  1.0000
  -8 -10  -4    5712     980                                                        4660    1.71    0.00  1.0000
 -10   9  -4     822    1670                                                        1610    2.68    0.00  1.0000
  -9 -10  -4    2524    1050                                                        3810    2.68    0.00  1.0000
   9  10  -4    3343    1560                                                        4800    2.68    0.00  1.0000
  10  10  -4       2    1450                                                        -350   -0.36    0.00  1.0000
 -10 -10  -4    2636    1330                                                        2480   -0.36    0.00  1.0000
 -10  10  -4       2    1600                                                       -1220   -0.36    0.00  1.0000
 -11 -10  -4    6633    1240                                                        5409    1.85    0.00  1.0000
 -10  11  -4    1498    1660                                                         950    1.84    0.00  1.0000
  11  10  -4    1772    1570                                                        1170    1.84    0.00  1.0000
  11   9  -4    1634    1610                                                        1520   -0.34    0.00  1.0000
 -11  -9  -4     692    1170                                                         620   -0.33    0.00  1.0000
  -9  11  -4    1093    1610                                                        1000   -0.34    0.00  1.0000
 -11  -8  -4    1242    1330                                                        1350    0.35    0.00  1.0000
  -8  11  -4     538    1540                                                         610    0.35    0.00  1.0000
  11   8  -4     889    1610                                                         980    0.35    0.00  1.0000
  -7  11  -4     905    1430                                                        1180   -1.00    0.00  1.0000
  11   7  -4      18    1560                                                       -1070   -1.00    0.00  1.0000
  -6  11  -4    5737    1540                                                        6469    1.10    0.00  1.0000
 -11  -6  -4    4353    1440                                                        4990    1.09    0.00  1.0000
  11   6  -4    5259    1660                                                        5959    1.09    0.00  1.0000
  11   5  -4    7067    1740                                                        7529    0.63    0.00  1.0000
 -11  -5  -4    7186    1570                                                        7649    0.63    0.00  1.0000
  -5  11  -4    8099    1550                                                        8589    0.63    0.00  1.0000
  11   4  -4     403    1520                                                         540   -0.74    0.00  1.0000
 -11  -4  -4      10    1380                                                       -1420   -0.74    0.00  1.0000
  -4  11  -4      10    1350                                                       -1350   -0.74    0.00  1.0000
  11   3  -4    4605    1690                                                        4980   -0.63    0.00  1.0000
 -11  -3  -4       7    1520                                                        -500   -0.63    0.00  1.0000
  -3  11  -4     637    1270                                                         780   -0.63    0.00  1.0000
  11   2  -4    9088    1830                                                        9129    0.05    0.00  1.0000
  -2  11  -4   11303    1450                                                       11349    0.05    0.00  1.0000
 -11  -2  -4    7688    1660                                                        7729    0.05    0.00  1.0000
 -11  -1  -4    5758    1550                                                        5799    0.06    0.00  1.0000
  -1  11  -4    5237    1240                                                        5279    0.07    0.00  1.0000
  11   1  -4    2454    1780                                                        2480    0.06    0.00  1.0000
 -11   0  -4     362    1540                                                         730   -1.87    0.00  1.0000
  11   0  -4      64    1690                                                        -510   -1.87    0.00  1.0000
   0  11  -4    1250    1110                                                        1880   -1.87    0.00  1.0000
  11  -1  -4    1047    1620                                                        1780   -2.30    0.00  1.0000
 -11   1  -4    1349    1560                                                        2170   -2.30    0.00  1.0000
   1  11  -4     257    1190                                                         670   -2.30    0.00  1.0000
   2  11  -4    4273    1180                                                        4340    0.12    0.00  1.0000
 -11   2  -4    2814    1590                                                        2870    0.12    0.00  1.0000
   3  11  -4   21461    1770                                                       18458    2.49    0.00  1.0000
 -11   3  -4   21500    2140                                                       18488    2.49    0.00  1.0000
   4  11  -4    1561    1210                                                        1370    0.58    0.00  1.0000
 -11   4  -4       6    1540                                                       -1270    0.58    0.00  1.0000
   5  11  -4    1156    1240                                                        1180    0.08    0.00  1.0000
 -11   5  -4       0    1580                                                        -240    0.09    0.00  1.0000
 -11   6  -4    6298    1830                                                        7709   -1.97    0.00  1.0000
   6  11  -4    8112    1460                                                        9699   -1.97    0.00  1.0000
 -11   7  -4     148    1670                                                          40    1.36    0.00  1.0000
  -7 -11  -4    1861     670                                                        1390    1.37    0.00  1.0000
   7  11  -4      34    1310                                                        -830    1.36    0.00  1.0000
  -8 -11  -4    2305     790                                                        1850   -1.17    0.00  1.0000
   8  11  -4     472    1320                                                         280   -1.17    0.00  1.0000
 -11   8  -4     821    1640                                                         560   -1.17    0.00  1.0000
   9  11  -4    3090    1470                                                        2990    0.21    0.00  1.0000
 -11   9  -4    2501    1740                                                        2410    0.21    0.00  1.0000
  -9 -11  -4    2042     890                                                        1960    0.21    0.00  1.0000
  10  11  -4   14022    1760                                                       11779   -2.31    0.00  1.0000
 -10 -11  -4   11425    1250                                                        9409   -2.31    0.00  1.0000
 -11  10  -4    8812    1900                                                        7059   -2.30    0.00  1.0000
 -11  11  -4    1228    1760                                                        1460   -0.74    0.00  1.0000
  11  11  -4    3335    1690                                                        3710   -0.74    0.00  1.0000
  12  11  -4    2084    1760                                                        1370   -2.02    0.00  1.0000
 -11  12  -4    1557    1790                                                         950   -2.02    0.00  1.0000
 -12 -11  -4      74    1220                                                         -20   -2.01    0.00  1.0000
 -12 -10  -4    3116    1310                                                        3090    0.05    0.00  1.0000
 -10  12  -4    4464    1760                                                        4430    0.06    0.00  1.0000
  12  10  -4    4561    1840                                                        4530    0.05    0.00  1.0000
  12   9  -4     113    1760                                                        -240   -2.48    0.00  1.0000
  -9  12  -4     191    1620                                                          10   -2.49    0.00  1.0000
 -12  -9  -4     288    1460                                                          40   -2.49    0.00  1.0000
  -8  12  -4    2339    1670                                                        3150   -1.81    0.00  1.0000
  12   8  -4      60    1760                                                        -540   -1.81    0.00  1.0000
 -12  -8  -4    2544    1490                                                        3390   -1.82    0.00  1.0000
  12   7  -4    4195    1720                                                        4800   -1.05    0.00  1.0000
  -7  12  -4    2442    1540                                                        2910   -1.06    0.00  1.0000
 -12  -7  -4    1491    1450                                                        1860   -1.06    0.00  1.0000
  12   6  -4    1068    1670                                                        1540    1.53    0.00  1.0000
  -6  12  -4      43    1440                                                       -1010    1.53    0.00  1.0000
 -12  -6  -4     918    1450                                                        1360    1.54    0.00  1.0000
  12   5  -4    5583    1730                                                        4700    1.44    0.00  1.0000
 -12  -5  -4    3100    1520                                                        2450    1.44    0.00  1.0000
  -5  12  -4      38    1370                                                        -570    1.44    0.00  1.0000
  12   4  -4    3762    1720                                                        3910   -0.28    0.00  1.0000
 -12  -4  -4    1390    1540                                                        1480   -0.28    0.00  1.0000
  -4  12  -4    2558    1360                                                        2680   -0.28    0.00  1.0000
  -3  12  -4    1358    1260                                                         990   -1.26    0.00  1.0000
  12   3  -4      29    1830                                                        -380   -1.26    0.00  1.0000
 -12  -3  -4     883    1530                                                         590   -1.27    0.00  1.0000
  12   2  -4    3915    1910                                                        4950   -1.82    0.00  1.0000
  -2  12  -4    4679    1370                                                        5809   -1.83    0.00  1.0000
 -12  -2  -4    4967    1660                                                        6129   -1.83    0.00  1.0000
  -1  12  -4      98    1120                                                         550   -3.17    0.00  1.0000
  12   1  -4    2628    1850                                                        4200   -3.17    0.00  1.0000
 -12  -1  -4    1706    1620                                                        3010   -3.17    0.00  1.0000
 -12   0  -4     114    1600                                                        -170   -2.49    0.00  1.0000
   0  12  -4    1135    1180                                                        1970   -2.50    0.00  1.0000
  12   0  -4     114    1640                                                        -210   -2.50    0.00  1.0000
 -12   1  -4       0    1610                                                        -830   -0.12    0.00  1.0000
   1  12  -4       0    1110                                                        -740   -0.12    0.00  1.0000
   2  12  -4    2689    1300                                                        3300    1.31    0.00  1.0000
 -12   2  -4    4915    1690                                                        5729    1.30    0.00  1.0000
 -12   3  -4    6480    1880                                                        7609    1.57    0.00  1.0000
   3  12  -4    9184    1390                                                       10519    1.57    0.00  1.0000
   4  12  -4     969    1230                                                         830   -0.54    0.00  1.0000
 -12   4  -4       6    1670                                                       -1300   -0.55    0.00  1.0000
 -12   5  -4     369    1680                                                         950    2.71    0.00  1.0000
   5  12  -4    1636    1300                                                        2710    2.71    0.00  1.0000
   6  12  -4    2934    1320                                                        3390    0.95    0.00  1.0000
 -12   6  -4    2285    1790                                                        2690    0.95    0.00  1.0000
 -12   7  -4    1891    1760                                                        2320    1.10    0.00  1.0000
   7  12  -4     160    1340                                                         300    1.09    0.00  1.0000
 -12   8  -4    1191    1800                                                         400   -3.39    0.00  1.0000
   8  12  -4    5283    1420                                                        3380   -3.40    0.00  1.0000
  -9 -12  -4    2236     810                                                        2970   -1.69    0.00  1.0000
   9  12  -4      52    1370                                                       -1800   -1.68    0.00  1.0000
 -12   9  -4    2443    1780                                                        3210   -1.69    0.00  1.0000
 -10 -12  -4    4347    1010                                                        5439   -1.83    0.00  1.0000
 -12  10  -4    3996    1820                                                        5049   -1.83    0.00  1.0000
  10  12  -4    3979    1660                                                        5029   -1.83    0.00  1.0000
  11  12  -4    5763    1770                                                        5449   -0.49    0.00  1.0000
 -11 -12  -4    8423    1230                                                        8039   -0.49    0.00  1.0000
 -12  11  -4    6856    1910                                                        6509   -0.50    0.00  1.0000
 -12  12  -4     522    1800                                                         760   -1.10    0.00  1.0000
  12  12  -4    1581    1860                                                        1980   -1.11    0.00  1.0000
 -12  13  -4    5349    1940                                                        5869    0.81    0.00  1.0000
 -13 -12  -4    7107    1420                                                        7699    0.80    0.00  1.0000
  13  12  -4    2935    2000                                                        3320    0.81    0.00  1.0000
  13  11  -4     983    1870                                                        1500   -1.72    0.00  1.0000
 -11  13  -4    1193    1790                                                        1760   -1.73    0.00  1.0000
 -13 -11  -4      55    1280                                                       -2100   -1.73    0.00  1.0000
 -10  13  -4       9    1690                                                           0   -0.69    0.00  1.0000
  13  10  -4    3185    1930                                                        2860   -0.69    0.00  1.0000
 -13 -10  -4     412    1570                                                         300   -0.69    0.00  1.0000
  13   9  -4    8680    2020                                                        6439   -3.02    0.00  1.0000
 -13  -9  -4    7817    1500                                                        5699   -3.02    0.00  1.0000
  -9  13  -4    5393    1760                                                        3660   -3.02    0.00  1.0000
 -13  -8  -4     423    1540                                                         850   -2.01    0.00  1.0000
  13   8  -4    3403    2010                                                        4480   -2.01    0.00  1.0000
  -8  13  -4    3701    1670                                                        4820   -2.01    0.00  1.0000
  -7  13  -4       8    1450                                                       -1670   -0.67    0.00  1.0000
 -13  -7  -4    1516    1580                                                        1300   -0.67    0.00  1.0000
  13   7  -4     350    1780                                                         250   -0.68    0.00  1.0000
  13   6  -4      40    1770                                                        -760    1.48    0.00  1.0000
  -6  13  -4     667    1470                                                         380    1.48    0.00  1.0000
 -13  -6  -4      40    1560                                                       -1020    1.48    0.00  1.0000
  -5  13  -4    2427    1450                                                        1690    1.91    0.00  1.0000
 -13  -5  -4    2615    1530                                                        1850    1.90    0.00  1.0000
  13   5  -4    2270    1900                                                        1560    1.90    0.00  1.0000
 -13  -4  -4      31    1540                                                        -510    1.30    0.00  1.0000
  -4  13  -4    2288    1310                                                        2850    1.30    0.00  1.0000
  13   4  -4    1288    1850                                                        1720    1.30    0.00  1.0000
 -13  -3  -4    6696    1770                                                        7589    1.23    0.00  1.0000
  13   3  -4    7752    2080                                                        8709    1.23    0.00  1.0000
  -3  13  -4    9957    1540                                                       11039    1.23    0.00  1.0000
  -2  13  -4    4183    1330                                                        3260    1.77    0.00  1.0000
  13   2  -4    7898    2010                                                        6609    1.77    0.00  1.0000
 -13  -2  -4    5276    1670                                                        4230    1.78    0.00  1.0000
  -1  13  -4    1098    1250                                                         930    0.62    0.00  1.0000
 -13  -1  -4     422    1590                                                         320    0.62    0.00  1.0000
 -13   0  -4    4967    1780                                                        5609    1.03    0.00  1.0000
   0  13  -4    6475    1320                                                        7209    1.04    0.00  1.0000
   1  13  -4    1147    1230                                                         440    3.01    0.00  1.0000
 -13   1  -4    4005    1700                                                        2540    3.01    0.00  1.0000
 -13   2  -4    3460    1840                                                        2470    2.13    0.00  1.0000
   2  13  -4    4816    1290                                                        3630    2.14    0.00  1.0000
   3  13  -4     721    1240                                                         900    0.74    0.00  1.0000
 -13   3  -4    2804    1750                                                        3150    0.74    0.00  1.0000
 -13   4  -4    1961    1840                                                        2730   -1.86    0.00  1.0000
   4  13  -4    2378    1270                                                        3220   -1.87    0.00  1.0000
   5  13  -4       0    1310                                                         100    2.45    0.00  1.0000
 -13   5  -4    1483    1840                                                        2400    2.45    0.00  1.0000
   6  13  -4    3177    1330                                                        2130    2.39    0.00  1.0000
 -13   6  -4    2945    1810                                                        1940    2.39    0.00  1.0000
   7  13  -4     690    1380                                                        1090    1.58    0.00  1.0000
 -13   7  -4      45    1740                                                       -2380    1.57    0.00  1.0000
 -13   8  -4     737    1810                                                        1130   -1.51    0.00  1.0000
   8  13  -4     515    1430                                                         850   -1.51    0.00  1.0000
 -13   9  -4       0    1740                                                        -430   -0.05    0.00  1.0000
   9  13  -4       0    1410                                                        -700   -0.04    0.00  1.0000
  10  13  -4    1021    1600                                                         740    1.11    0.00  1.0000
 -13  10  -4      23    1770                                                        -240    1.11    0.00  1.0000
 -13  11  -4      38    1780                                                       -1320    1.44    0.00  1.0000
  11  13  -4    2196    1680                                                        1660    1.43    0.00  1.0000
  12  13  -4       9    1850                                                       -1070   -0.69    0.00  1.0000
 -13  12  -4     128    1930                                                          70   -0.69    0.00  1.0000
  13  13  -4   10222    2120                                                       10539   -0.36    0.00  1.0000
 -13  13  -4    6025    2090                                                        6269   -0.36    0.00  1.0000
  14  12  -4    6839    2260                                                        8429    2.13    0.00  1.0000
 -12  14  -4    2488    2050                                                        3480    2.13    0.00  1.0000
 -14 -12  -4    4170    2110                                                        5429    2.13    0.00  1.0000
  14  11  -4    2372    2100                                                        2680   -0.72    0.00  1.0000
 -11  14  -4    3258    1830                                                        3620   -0.72    0.00  1.0000
 -14 -11  -4    2120    1450                                                        2410   -0.71    0.00  1.0000
 -10  14  -4    3509    1710                                                        3560   -0.10    0.00  1.0000
  14  10  -4     461    2010                                                         480   -0.10    0.00  1.0000
 -14 -10  -4    1943    1520                                                        1980   -0.10    0.00  1.0000
  -9  14  -4      73    1620                                                       -1560   -1.99    0.00  1.0000
 -14  -9  -4    1877    1620                                                        1210   -2.00    0.00  1.0000
  14   9  -4    2125    2120                                                        1410   -2.00    0.00  1.0000
  14   8  -4      18    2060                                                       -1470   -0.98    0.00  1.0000
 -14  -8  -4      18    1600                                                        -890   -0.98    0.00  1.0000
  -8  14  -4     437    1580                                                         630   -0.98    0.00  1.0000
  14   7  -4    6228    2060                                                        6669   -0.64    0.00  1.0000
 -14  -7  -4    2553    1590                                                        2840   -0.65    0.00  1.0000
  -7  14  -4    5504    1620                                                        5919   -0.64    0.00  1.0000
 -14  -6  -4   48040    3560                                                       46395   -0.88    0.00  1.0000
  -6  14  -4   47036    3470                                                       45395   -0.89    0.00  1.0000
  14   6  -4   45303    3900                                                       43706   -0.88    0.00  1.0000
  -5  14  -4    6380    1650                                                        7489   -1.56    0.00  1.0000
 -14  -5  -4    8225    1770                                                        9479   -1.56    0.00  1.0000
  14   5  -4    4580    2120                                                        5529   -1.56    0.00  1.0000
 -14  -4  -4    1711    1690                                                        2560   -2.16    0.00  1.0000
  -4  14  -4      23    1260                                                          20   -2.16    0.00  1.0000
  14   4  -4    1898    1940                                                        2790   -2.16    0.00  1.0000
  -3  14  -4    5618    1360                                                        5059   -0.89    0.00  1.0000
 -14  -3  -4    6061    1720                                                        5479   -0.90    0.00  1.0000
  -2  14  -4      67    1210                                                         -50    1.92    0.00  1.0000
 -14  -2  -4      67    1630                                                       -1190    1.91    0.00  1.0000
  -1  14  -4     228    1240                                                         700    2.65    0.00  1.0000
 -14  -1  -4    1486    1670                                                        2490    2.65    0.00  1.0000
   0  14  -4    3882    1400                                                        4500    1.12    0.00  1.0000
 -14   0  -4    3772    1770                                                        4380    1.11    0.00  1.0000
   1  14  -4     486    1220                                                         410    0.42    0.00  1.0000
 -14   1  -4    3409    1740                                                        3200    0.42    0.00  1.0000
   2  14  -4     152    1320                                                         350   -1.50    0.00  1.0000
 -14   2  -4     495    1730                                                         820   -1.49    0.00  1.0000
 -14   3  -4    2952    1890                                                        3860   -1.82    0.00  1.0000
   3  14  -4      61    1200                                                         -30   -1.82    0.00  1.0000
   4  14  -4      66    1260                                                         490   -3.28    0.00  1.0000
 -14   4  -4     331    1880                                                        1040   -3.28    0.00  1.0000
 -14   5  -4    2158    1900                                                        2570   -0.99    0.00  1.0000
   5  14  -4    2733    1360                                                        3190   -0.98    0.00  1.0000
   6  14  -4    6273    1490                                                        6669    0.58    0.00  1.0000
 -14   6  -4    3013    1890                                                        3290    0.58    0.00  1.0000
   7  14  -4   11560    1610                                                       11089    0.52    0.00  1.0000
 -14   7  -4    7568    2050                                                        7189    0.52    0.00  1.0000
 -14   8  -4       6    1900                                                       -1380    0.58    0.00  1.0000
   8  14  -4    1353    1410                                                        1540    0.57    0.00  1.0000
 -14   9  -4    2483    1960                                                        2740    0.59    0.00  1.0000
   9  14  -4     940    1500                                                        1100    0.59    0.00  1.0000
 -14  10  -4     409    1880                                                         570    0.85    0.00  1.0000
  10  14  -4      13    1560                                                       -1410    0.85    0.00  1.0000
  11  14  -4     689    1690                                                         950    1.07    0.00  1.0000
  12  14  -4       1    1890                                                         -90   -0.23    0.00  1.0000
 -14  12  -4       1    1800                                                        -200   -0.24    0.00  1.0000
 -11  15  -4       5    1970                                                         -30    0.50    0.00  1.0000
 -15 -11  -4     979    1560                                                         850    0.50    0.00  1.0000
 -15 -10  -4    5203    1740                                                        4460    1.25    0.00  1.0000
 -10  15  -4      29    1710                                                       -1350    1.25    0.00  1.0000
  15  10  -4    3231    2100                                                        2650    1.25    0.00  1.0000
 -15  -9  -4    6993    1750                                                        6369   -0.89    0.00  1.0000
  -9  15  -4    6801    1810                                                        6189   -0.89    0.00  1.0000
  15   9  -4    1973    2270                                                        1650   -0.89    0.00  1.0000
 -15  -8  -4    6515    1820                                                        6839   -0.46    0.00  1.0000
  -8  15  -4    5925    1740                                                        6239   -0.47    0.00  1.0000
  15   8  -4    8988    2130                                                        9369   -0.46    0.00  1.0000
  15   7  -4     364    2050                                                         420    0.33    0.00  1.0000
 -15  -7  -4       2    1710                                                        -130    0.34    0.00  1.0000
  -7  15  -4    2435    1610                                                        2580    0.34    0.00  1.0000
  -6  15  -4    2677    1460                                                        2880   -0.45    0.00  1.0000
 -15  -6  -4    1479    1750                                                        1630   -0.45    0.00  1.0000
  15   6  -4    6386    2210                                                        6699   -0.45    0.00  1.0000
  -5  15  -4     380    1480                                                         650   -1.40    0.00  1.0000
 -15  -5  -4      36    1710                                                        -290   -1.41    0.00  1.0000
 -15  -4  -4    2425    1780                                                        3700   -2.71    0.00  1.0000
  -4  15  -4    1671    1420                                                        2750   -2.70    0.00  1.0000
 -15  -3  -4    2522    1740                                                        2110   -1.00    0.00  1.0000
  -3  15  -4    2326    1310                                                        1930   -1.01    0.00  1.0000
  -2  15  -4   14202    1510                                                       11399    2.90    0.00  1.0000
 -15  -2  -4   14157    2010                                                       11359    2.90    0.00  1.0000
  -1  15  -4       9    1210                                                         760    5.75    0.00  1.0000
 -15  -1  -4    1003    1820                                                        3170    5.76    0.00  1.0000
 -15   0  -4    1260    1790                                                        2400    3.15    0.00  1.0000
   0  15  -4    1074    1340                                                        2140    3.15    0.00  1.0000
 -15   1  -4   11273    2030                                                       11019    0.28    0.00  1.0000
   1  15  -4   11650    1570                                                       11389    0.28    0.00  1.0000
 -15   2  -4   14356    2080                                                       13059   -1.30    0.00  1.0000
   2  15  -4   14616    1620                                                       13309   -1.29    0.00  1.0000
 -15   3  -4   12225    2100                                                       12239    0.01    0.00  1.0000
   3  15  -4    9262    1510                                                        9279    0.02    0.00  1.0000
 -15   4  -4   14231    2160                                                       13919    0.31    0.00  1.0000
   4  15  -4   12890    1640                                                       12599    0.30    0.00  1.0000
   5  15  -4    9674    1520                                                        8949   -0.88    0.00  1.0000
 -15   5  -4    8778    2110                                                        8089   -0.88    0.00  1.0000
   6  15  -4     682    1430                                                        1080    1.58    0.00  1.0000
 -15   6  -4    1054    2020                                                        1540    1.58    0.00  1.0000
   7  15  -4    1800    1420                                                        3140    3.18    0.00  1.0000
 -15   7  -4    1144    2060                                                        2250    3.18    0.00  1.0000
   8  15  -4     828    1420                                                       -1240    6.73    0.00  1.0000
 -15   8  -4     827    2040                                                        -110    6.72    0.00  1.0000
   9  15  -4     537    1580                                                        1910    4.80    0.00  1.0000
 -15   9  -4     787    2090                                                        2360    4.80    0.00  1.0000
 -15  10  -4      27    2120                                                        -520    1.22    0.00  1.0000
  10  15  -4     649    1660                                                         410    1.22    0.00  1.0000
 -15  11  -4     240    1950                                                         380   -0.94    0.00  1.0000
  11  15  -4     875    1750                                                        1130   -0.94    0.00  1.0000
 -16  -9  -4      29    1760                                                       -1290    1.25    0.00  1.0000
  -9  16  -4      29    1750                                                        -770    1.25    0.00  1.0000
  -8  16  -4       0    1620                                                       -3050   -0.10    0.00  1.0000
 -16  -8  -4    1727    1780                                                        1690   -0.10    0.00  1.0000
  -7  16  -4     850    1510                                                         340    2.50    0.00  1.0000
 -16  -7  -4     114    1760                                                        -610    2.50    0.00  1.0000
  -6  16  -4    1106    1560                                                        2130    3.01    0.00  1.0000
 -16  -6  -4    1445    1830                                                        2590    3.01    0.00  1.0000
  -5  16  -4    3606    1490                                                        2970    1.30    0.00  1.0000
 -16  -5  -4    5193    1850                                                        4420    1.30    0.00  1.0000
 -16  -4  -4    8461    1900                                                        6239   -3.04    0.00  1.0000
  -4  16  -4    8832    1540                                                        6559   -3.04    0.00  1.0000
  -3  16  -4     525    1350                                                        1600   -3.99    0.00  1.0000
 -16  -3  -4    1273    1810                                                        2780   -3.98    0.00  1.0000
 -16  -2  -4      74    1790                                                        -900   -2.01    0.00  1.0000
  -2  16  -4      74    1200                                                        -860   -2.01    0.00  1.0000
 -16  -1  -4     973    1860                                                        1560    1.94    0.00  1.0000
  -1  16  -4      69    1240                                                        -180    1.95    0.00  1.0000
   0  16  -4      20    1280                                                        -270    1.05    0.00  1.0000
 -16   0  -4      20    1790                                                       -1340    1.05    0.00  1.0000
 -16   1  -4     912    1920                                                        1100   -0.69    0.00  1.0000
   1  16  -4     307    1310                                                         420   -0.69    0.00  1.0000
   2  16  -4      14    1330                                                        -120   -0.86    0.00  1.0000
 -16   2  -4      13    1800                                                       -2990   -0.86    0.00  1.0000
 -16   3  -4    4310    2000                                                        3830    0.88    0.00  1.0000
   3  16  -4      14    1200                                                       -1470    0.88    0.00  1.0000
   4  16  -4     203    1290                                                          20    2.28    0.00  1.0000
 -16   4  -4     931    1870                                                         430    2.28    0.00  1.0000
   5  16  -4      99    1370                                                       -1520   -2.33    0.00  1.0000
 -16   5  -4      99    1880                                                        -130   -2.33    0.00  1.0000
 -16   6  -4      84    2030                                                        -200   -2.14    0.00  1.0000
   6  16  -4      84    1380                                                         -90   -2.14    0.00  1.0000
   7  16  -4   12811    1840                                                       15568   -2.71    0.00  1.0000
 -16   7  -4   10080    2450                                                       12539   -2.71    0.00  1.0000
   8  16  -4    7493    1690                                                        8389    1.17    0.00  1.0000
   9  16  -4    1761    1630                                                        2140   -1.00    0.00  1.0000
 -16   9  -4      18    2040                                                       -1870   -1.00    0.00  1.0000
 -17  -7  -4    4264    1970                                                        4570    0.54    0.00  1.0000
  -7  17  -4    7129    1720                                                        7519    0.53    0.00  1.0000
 -17  -6  -4    2270    1900                                                        4110    3.85    0.00  1.0000
  -6  17  -4     667    1590                                                        1790    3.85    0.00  1.0000
 -17  -5  -4     299    1830                                                       -1190    4.04    0.00  1.0000
  -5  17  -4    1727    1410                                                         590    4.04    0.00  1.0000
 -17  -4  -4       9    1890                                                       -1090    0.71    0.00  1.0000
  -4  17  -4       9    1400                                                         -20    0.72    0.00  1.0000
  -3  17  -4    5443    1430                                                        5439   -0.01    0.00  1.0000
 -17  -3  -4    4446    1980                                                        4440   -0.01    0.00  1.0000
  -2  17  -4    3864    1390                                                        3870   -0.01    0.00  1.0000
 -17  -2  -4    8909    2040                                                        8919   -0.01    0.00  1.0000
 -17  -1  -4    5893    2060                                                        7599    2.43    0.00  1.0000
  -1  17  -4    6139    1470                                                        7879    2.43    0.00  1.0000
 -17   0  -4     850    1900                                                        1280    1.55    0.00  1.0000
   0  17  -4     901    1340                                                        1340    1.54    0.00  1.0000
   1  17  -4    4089    1410                                                        3600    0.92    0.00  1.0000
 -17   1  -4    1343    1950                                                        1070    0.92    0.00  1.0000
   2  17  -4     838    1380                                                        1180    1.26    0.00  1.0000
 -17   2  -4      29    1870                                                       -1330    1.26    0.00  1.0000
   3  17  -4     108    1330                                                        -910    2.43    0.00  1.0000
 -17   3  -4     108    1920                                                       -2940    2.43    0.00  1.0000
   4  17  -4     478    1340                                                        -340    5.11    0.00  1.0000
 -17   4  -4     478    1990                                                        -580    5.11    0.00  1.0000
   5  17  -4     722    1440                                                         860    0.58    0.00  1.0000
 -17   5  -4    5359    2010                                                        5729    0.58    0.00  1.0000
   6  17  -4    3015    1530                                                        3340   -0.67    0.00  1.0000
 -17   7  -4      30    2070                                                         160   -4.23    0.00  1.0000
   7  17  -4    1506    1530                                                        3240   -4.23    0.00  1.0000
  -5  18  -4    4617    1510                                                        3670    1.72    0.00  1.0000
 -18  -5  -4    1002    1950                                                         590    1.72    0.00  1.0000
  -4  18  -4       5    1430                                                       -1480    0.54    0.00  1.0000
 -18  -4  -4       5    1930                                                       -1010    0.54    0.00  1.0000
  -3  18  -4      69    1330                                                       -1290    1.95    0.00  1.0000
 -18  -3  -4     258    1940                                                          60    1.95    0.00  1.0000
  -2  18  -4    2000    1330                                                        1600    1.10    0.00  1.0000
 -18  -2  -4    1597    2010                                                        1240    1.11    0.00  1.0000
 -18  -1  -4    2915    1980                                                        3710    1.62    0.00  1.0000
  -1  18  -4      48    1350                                                       -1490    1.62    0.00  1.0000
 -18   0  -4    2749    2090                                                        3340   -1.25    0.00  1.0000
   0  18  -4     681    1380                                                         990   -1.25    0.00  1.0000
 -18   1  -4     707    2030                                                        1280   -2.15    0.00  1.0000
   1  18  -4      84    1390                                                        -120   -2.15    0.00  1.0000
   2  18  -4    5513    1400                                                        3810   -2.93    0.00  1.0000
 -18   2  -4    2401    2060                                                        1330   -2.93    0.00  1.0000
   3  18  -4    1252    1360                                                         450   -3.31    0.00  1.0000
 -18   3  -4     200    1940                                                        -670   -3.31    0.00  1.0000
   4  18  -4     557    1420                                                         640   -0.40    0.00  1.0000
   5  18  -4      49    1430                                                         370   -2.86    0.00  1.0000
 -18   5  -4     149    1990                                                       -2490   -2.86    0.00  1.0000
   0  -1  -5     107     990                                                        -940   -2.42    0.00  1.0000
  -1   0  -5     107     990                                                         -60    2.42    0.00  1.0000
   1   0  -5     107     970                                                        -450    2.41    0.00  1.0000
   0   1  -5    2445    1090                                                        1530   -2.42    0.00  1.0000
  -1  -1  -5    9445    1310                                                       10869    1.65    0.00  1.0000
   1  -1  -5    9002    1280                                                       10389   -1.65    0.00  1.0000
  -1   1  -5    8081    1350                                                        9399   -1.65    0.00  1.0000
   1   1  -5    9721    1380                                                       11159    1.65    0.00  1.0000
   2   1  -5    4722    1100                                                        4040    1.21    0.00  1.0000
   1  -2  -5    1581     960                                                        1200   -1.20    0.00  1.0000
  -2  -1  -5    1570    1010                                                        1190    1.20    0.00  1.0000
  -1   2  -5    1903    1150                                                        1480   -1.20    0.00  1.0000
   0   2  -5     708    1130                                                        1890   -3.94    0.00  1.0000
  -2   0  -5    1026    1070                                                        2390    3.94    0.00  1.0000
   0  -2  -5    1197    1000                                                        2650   -3.95    0.00  1.0000
   2   0  -5    1484    1020                                                        3070    3.95    0.00  1.0000
   2  -1  -5    1335    1040                                                        1680    1.04    0.00  1.0000
  -1  -2  -5     790     980                                                        1060   -1.04    0.00  1.0000
  -2   1  -5    1078    1090                                                        1390    1.04    0.00  1.0000
   1   2  -5    1007    1130                                                        1310   -1.04    0.00  1.0000
  -2   2  -5      32    1070                                                        -410    1.33    0.00  1.0000
   2   2  -5      32    1010                                                       -1000   -1.33    0.00  1.0000
  -2  -2  -5     805     980                                                        1160   -1.33    0.00  1.0000
   2  -2  -5      32    1020                                                        -390    1.33    0.00  1.0000
   2  -3  -5    2157    1030                                                        2360    0.50    0.00  1.0000
   3   2  -5    3598    1140                                                        3860   -0.50    0.00  1.0000
  -3  -2  -5    2682    1040                                                        2910   -0.50    0.00  1.0000
  -2   3  -5    1498    1130                                                        1670    0.51    0.00  1.0000
   1  -3  -5    2668    1000                                                        2520    0.34    0.00  1.0000
  -3  -1  -5    3241    1070                                                        3080   -0.33    0.00  1.0000
  -1   3  -5    2387    1090                                                        2250    0.33    0.00  1.0000
   3   1  -5    2503    1140                                                        2360   -0.34    0.00  1.0000
   0  -3  -5     247     900                                                        -230   -3.67    0.00  1.0000
   3   0  -5    3584    1080                                                        1950    3.67    0.00  1.0000
  -3   0  -5    1417    1010                                                         480    3.68    0.00  1.0000
   0   3  -5     247    1120                                                        -560   -3.67    0.00  1.0000
   1   3  -5    1352    1150                                                        2270   -2.54    0.00  1.0000
  -3   1  -5     118    1060                                                        -910    2.54    0.00  1.0000
   3  -1  -5       0    1050                                                         120    2.54    0.00  1.0000
  -1  -3  -5       2     940                                                         150   -2.54    0.00  1.0000
  -3   2  -5    1800    1180                                                        2470    1.70    0.00  1.0000
  -2  -3  -5      57     950                                                         220   -1.70    0.00  1.0000
   2   3  -5    1252    1090                                                        1820   -1.70    0.00  1.0000
   3  -2  -5    3354    1120                                                        4250    1.70    0.00  1.0000
   3   3  -5    2836    1140                                                        3500    1.38    0.00  1.0000
   3  -3  -5    2471    1120                                                        3090   -1.37    0.00  1.0000
  -3  -3  -5    2641    1030                                                        3280    1.37    0.00  1.0000
  -3   3  -5    3388    1260                                                        4110   -1.38    0.00  1.0000
   3  -4  -5   10080    1290                                                       10339    0.30    0.00  1.0000
  -3   4  -5    7588    1420                                                        7809    0.29    0.00  1.0000
  -4  -3  -5    9077    1210                                                        9319   -0.29    0.00  1.0000
   4   3  -5    9665    1440                                                        9919   -0.30    0.00  1.0000
  -2   4  -5    6273    1270                                                        4430    2.96    0.00  1.0000
   4   2  -5    9321    1280                                                        7039   -2.96    0.00  1.0000
  -4  -2  -5    7949    1190                                                        5859   -2.95    0.00  1.0000
   2  -4  -5    9007    1160                                                        6769    2.95    0.00  1.0000
   4   1  -5     301    1120                                                        1270   -4.27    0.00  1.0000
   1  -4  -5     943     970                                                        2400    4.27    0.00  1.0000
  -1   4  -5     334    1110                                                         -70    4.27    0.00  1.0000
  -4  -1  -5     240    1100                                                        1140   -4.27    0.00  1.0000
   0   4  -5     401    1080                                                         520    0.65    0.00  1.0000
   4   0  -5     870    1130                                                        1040   -0.65    0.00  1.0000
   0  -4  -5       8     850                                                       -1130    0.65    0.00  1.0000
  -4   0  -5       8    1080                                                       -1300   -0.65    0.00  1.0000
   1   4  -5    2683    1210                                                        2750    0.15    0.00  1.0000
   4  -1  -5    1777    1140                                                        1830   -0.15    0.00  1.0000
  -1  -4  -5     173    1090                                                         190    0.15    0.00  1.0000
  -4   1  -5    2671    1200                                                        2740   -0.15    0.00  1.0000
   2   4  -5    1663    1140                                                        1940    0.76    0.00  1.0000
   4  -2  -5     157    1110                                                         250   -0.77    0.00  1.0000
  -4   2  -5      11    1190                                                        -190   -0.77    0.00  1.0000
  -2  -4  -5     237    1100                                                         350    0.77    0.00  1.0000
   4  -3  -5    1819    1130                                                        3290   -3.44    0.00  1.0000
  -4   3  -5     849    1220                                                        1920   -3.43    0.00  1.0000
   3   4  -5     216    1090                                                       -1550    3.44    0.00  1.0000
  -3  -4  -5     342     980                                                        1100    3.43    0.00  1.0000
   4   4  -5    3358    1310                                                        4690    2.46    0.00  1.0000
  -4   4  -5    4041    1300                                                        5489   -2.46    0.00  1.0000
   4  -4  -5    3019    1250                                                        4290   -2.47    0.00  1.0000
  -4  -4  -5    3138    1080                                                        4430    2.46    0.00  1.0000
  -4   5  -5    5000    1340                                                        4150   -1.47    0.00  1.0000
   5   4  -5    8814    1360                                                        7669    1.47    0.00  1.0000
  -5  -4  -5    6788    1150                                                        5789    1.47    0.00  1.0000
   4  -5  -5    7426    1320                                                        6379   -1.47    0.00  1.0000
   3  -5  -5    3331    1100                                                        3600   -0.53    0.00  1.0000
   5   3  -5    3435    1270                                                        3710    0.54    0.00  1.0000
  -5  -3  -5    1641    1090                                                        1830    0.53    0.00  1.0000
  -3   5  -5    2190    1210                                                        2410   -0.54    0.00  1.0000
  -5  -2  -5    6512    1250                                                        6259    0.37    0.00  1.0000
   5   2  -5    6669    1370                                                        6409    0.38    0.00  1.0000
  -2   5  -5    8929    1370                                                        8629   -0.37    0.00  1.0000
   2  -5  -5    8682    1220                                                        8389   -0.37    0.00  1.0000
   5   1  -5    1947    1160                                                        1720   -0.62    0.00  1.0000
  -5  -1  -5    2857    1130                                                        2580   -0.62    0.00  1.0000
  -1   5  -5    1767    1150                                                        1550    0.62    0.00  1.0000
   5   0  -5    4124    1220                                                        4160   -0.07    0.00  1.0000
  -5   0  -5       0    1160                                                        -150   -0.06    0.00  1.0000
   0   5  -5    1282    1170                                                        1300    0.06    0.00  1.0000
   0  -5  -5    1528     940                                                        1550    0.07    0.00  1.0000
  -5   1  -5    1078    1210                                                         870   -0.78    0.00  1.0000
  -1  -5  -5    2213     910                                                        1910    0.78    0.00  1.0000
   1   5  -5    1258    1080                                                        1030    0.79    0.00  1.0000
   5  -1  -5    2097    1190                                                        1800   -0.79    0.00  1.0000
   5  -2  -5    2866    1190                                                        2290   -1.33    0.00  1.0000
  -5   2  -5    5345    1280                                                        4550   -1.32    0.00  1.0000
   2   5  -5    3065    1240                                                        2470    1.32    0.00  1.0000
  -2  -5  -5    2348     940                                                        1830    1.33    0.00  1.0000
   3   5  -5    2485    1170                                                        3250    1.67    0.00  1.0000
  -3  -5  -5    2206     960                                                        2930    1.67    0.00  1.0000
   5  -3  -5    1112    1280                                                        1640   -1.67    0.00  1.0000
  -5   3  -5    1153    1320                                                        1690   -1.67    0.00  1.0000
   4   5  -5    1783    1220                                                        1280    1.51    0.00  1.0000
   5  -4  -5    2924    1250                                                        2270   -1.50    0.00  1.0000
  -4  -5  -5     982     910                                                         620    1.51    0.00  1.0000
  -5   4  -5    2655    1330                                                        2030   -1.51    0.00  1.0000
   5   5  -5    1604    1260                                                        1940    0.93    0.00  1.0000
   5  -5  -5     209    1220                                                         340   -0.93    0.00  1.0000
  -5   5  -5    1529    1370                                                        1860   -0.94    0.00  1.0000
   6   5  -5       0    1280                                                        -110    0.07    0.00  1.0000
  -5   6  -5    2751    1380                                                        2720   -0.07    0.00  1.0000
  -6  -5  -5     563    1050                                                         550    0.07    0.00  1.0000
   5  -6  -5    1019    1360                                                        1000   -0.07    0.00  1.0000
   6   4  -5    1281    1290                                                        1390    0.35    0.00  1.0000
  -4   6  -5       2    1200                                                       -3150   -0.35    0.00  1.0000
  -6  -4  -5     614    1030                                                         690    0.35    0.00  1.0000
   4  -6  -5     766    1170                                                         850   -0.35    0.00  1.0000
  -6  -3  -5     503    1120                                                         530    0.14    0.00  1.0000
  -3   6  -5    2838    1200                                                        2900   -0.14    0.00  1.0000
   6   3  -5    1702    1260                                                        1750    0.13    0.00  1.0000
   3  -6  -5      33    1160                                                          40   -0.14    0.00  1.0000
  -2   6  -5     809    1170                                                        1030   -0.85    0.00  1.0000
   6   2  -5    2662    1230                                                        3050    0.85    0.00  1.0000
  -6  -2  -5    1122    1150                                                        1380    0.85    0.00  1.0000
   2  -6  -5    3366    1300                                                        3800   -0.85    0.00  1.0000
  -6  -1  -5    5328    1300                                                        4650    1.12    0.00  1.0000
   1  -6  -5    3702    1040                                                        3140   -1.12    0.00  1.0000
  -1   6  -5    4982    1290                                                        4330   -1.12    0.00  1.0000
   6   1  -5    4651    1310                                                        4020    1.12    0.00  1.0000
   0   6  -5    5633    1190                                                        5909   -0.42    0.00  1.0000
  -6   0  -5    2795    1260                                                        2990    0.42    0.00  1.0000
   0  -6  -5    3096    1000                                                        3300   -0.42    0.00  1.0000
   6   0  -5    4785    1310                                                        5039    0.42    0.00  1.0000
  -6   1  -5    1060    1250                                                        1330   -0.91    0.00  1.0000
   1   6  -5      15    1190                                                        -990    0.91    0.00  1.0000
  -1  -6  -5      15     870                                                       -1500    0.91    0.00  1.0000
   6  -1  -5       3    1270                                                          30   -0.91    0.00  1.0000
  -6   2  -5    1908    1270                                                        2540   -1.57    0.00  1.0000
  -2  -6  -5    2780     940                                                        3530    1.56    0.00  1.0000
   6  -2  -5    1842    1320                                                        2460   -1.56    0.00  1.0000
   2   6  -5    2460    1160                                                        3170    1.57    0.00  1.0000
  -3  -6  -5    8786    1160                                                        8669    0.15    0.00  1.0000
   6  -3  -5    9408    1500                                                        9289   -0.14    0.00  1.0000
   3   6  -5    9074    1410                                                        8959    0.14    0.00  1.0000
  -6   3  -5    7719    1470                                                        7609   -0.15    0.00  1.0000
  -6   4  -5    3656    1380                                                        4260   -1.12    0.00  1.0000
   6  -4  -5    3746    1380                                                        4360   -1.13    0.00  1.0000
   4   6  -5    3617    1210                                                        4220    1.13    0.00  1.0000
  -4  -6  -5    3554    1000                                                        4150    1.12    0.00  1.0000
  -5  -6  -5    1525    1000                                                        2420    2.37    0.00  1.0000
   5   6  -5     916    1350                                                        1630    2.36    0.00  1.0000
   6  -5  -5       6    1410                                                         160   -2.37    0.00  1.0000
  -6   5  -5     102    1300                                                        -220   -2.36    0.00  1.0000
  -6  -6  -5     110     990                                                        -570    2.46    0.00  1.0000
   6   6  -5      95    1270                                                         410    2.46    0.00  1.0000
   6  -6  -5     104    1490                                                         430   -2.46    0.00  1.0000
  -6   6  -5     689    1360                                                        1350   -2.45    0.00  1.0000
   7   6  -5    8390    1490                                                        7149   -1.65    0.00  1.0000
   6  -7  -5    7196    1680                                                        6049    1.65    0.00  1.0000
  -7  -6  -5    3652    1330                                                        2850   -1.65    0.00  1.0000
  -6   7  -5    6198    1550                                                        5139    1.65    0.00  1.0000
  -5   7  -5   11724    1720                                                       14259    2.60    0.00  1.0000
   7   5  -5   11181    1650                                                       13659   -2.60    0.00  1.0000
  -7  -5  -5   10084    1470                                                       12439   -2.60    0.00  1.0000
   5  -7  -5    9942    1780                                                       12279    2.60    0.00  1.0000
  -4   7  -5     140    1230                                                          80    0.68    0.00  1.0000
   7   4  -5    1315    1260                                                        1110   -0.69    0.00  1.0000
   4  -7  -5     897    1290                                                         730    0.69    0.00  1.0000
  -7  -4  -5       8    1140                                                        -240   -0.68    0.00  1.0000
   3  -7  -5    6225    1550                                                        6479   -0.37    0.00  1.0000
   7   3  -5    5982    1410                                                        6229    0.37    0.00  1.0000
  -7  -3  -5    5236    1280                                                        5469    0.37    0.00  1.0000
  -3   7  -5    6778    1350                                                        7039   -0.37    0.00  1.0000
  -7  -2  -5    6447    1320                                                        5659    1.18    0.00  1.0000
   2  -7  -5    7066    1230                                                        6239   -1.19    0.00  1.0000
   7   2  -5    5381    1410                                                        4660    1.19    0.00  1.0000
  -2   7  -5    5359    1270                                                        4640   -1.19    0.00  1.0000
  -1   7  -5    1276    1250                                                        2150   -2.49    0.00  1.0000
   1  -7  -5       8     990                                                         180   -2.49    0.00  1.0000
   7   1  -5     114    1320                                                        -300    2.50    0.00  1.0000
  -7  -1  -5     833    1220                                                        1560    2.49    0.00  1.0000
   0   7  -5     183    1210                                                         380   -1.39    0.00  1.0000
   0  -7  -5    1624    1010                                                        2140   -1.39    0.00  1.0000
  -7   0  -5    2295    1310                                                        2900    1.39    0.00  1.0000
   7   0  -5    3481    1400                                                        4220    1.39    0.00  1.0000
  -7   1  -5    3145    1360                                                        3680   -1.07    0.00  1.0000
   1   7  -5    5546    1270                                                        6249    1.07    0.00  1.0000
   7  -1  -5    3597    1420                                                        4170   -1.08    0.00  1.0000
  -1  -7  -5    5816    1050                                                        6539    1.08    0.00  1.0000
  -2  -7  -5    1438     890                                                        2620    3.10    0.00  1.0000
   2   7  -5     296    1270                                                         930    3.11    0.00  1.0000
   7  -2  -5     220    1330                                                         790   -3.11    0.00  1.0000
  -7   2  -5     355    1310                                                        1030   -3.10    0.00  1.0000
  -7   3  -5     618    1330                                                         770   -0.68    0.00  1.0000
   7  -3  -5     806    1420                                                         980   -0.68    0.00  1.0000
  -3  -7  -5    1720     930                                                        1970    0.68    0.00  1.0000
   3   7  -5     934    1120                                                        1120    0.68    0.00  1.0000
  -7   4  -5     926    1360                                                         780   -0.59    0.00  1.0000
   7  -4  -5     193    1420                                                         130   -0.59    0.00  1.0000
   4   7  -5       6    1210                                                       -1520    0.59    0.00  1.0000
  -4  -7  -5    1369     900                                                        1190    0.58    0.00  1.0000
   5   7  -5    3183    1310                                                        2530    1.43    0.00  1.0000
  -5  -7  -5    3105     950                                                        2460    1.43    0.00  1.0000
   7  -5  -5    2923    1590                                                        2300   -1.43    0.00  1.0000
  -7   5  -5    3274    1440                                                        2610   -1.43    0.00  1.0000
  -6  -7  -5      34     970                                                          20    2.42    0.00  1.0000
   7  -6  -5    1671    1640                                                        2620   -2.41    0.00  1.0000
   6   7  -5      89    1330                                                         390    2.41    0.00  1.0000
  -7   6  -5     916    1480                                                        1650   -2.42    0.00  1.0000
  -7   7  -5   11839    1720                                                       11699    0.15    0.00  1.0000
   7   7  -5    9072    1610                                                        8949   -0.15    0.00  1.0000
  -7  -7  -5    9639    1290                                                        9509   -0.16    0.00  1.0000
   7  -7  -5    6535    1820                                                        6429    0.15    0.00  1.0000
  -7   8  -5    5919    1600                                                        7489    2.25    0.00  1.0000
   8   7  -5    2506    1520                                                        3560   -2.25    0.00  1.0000
  -8  -6  -5    1295    1190                                                        2720   -3.78    0.00  1.0000
   8   6  -5     538    1510                                                        1550   -3.78    0.00  1.0000
  -6   8  -5    1435    1480                                                        2920    3.78    0.00  1.0000
   8   5  -5    1223    1430                                                        2190   -2.76    0.00  1.0000
   5  -8  -5     140    1480                                                       -4080    2.76    0.00  1.0000
  -8  -5  -5     744    1180                                                        1530   -2.77    0.00  1.0000
  -5   8  -5     480    1440                                                        1140    2.77    0.00  1.0000
   4  -8  -5       7    2410                                                       -1500    0.64    0.00  1.0000
  -8  -4  -5     929    1200                                                         770   -0.64    0.00  1.0000
  -4   8  -5       7    1290                                                       -1780    0.63    0.00  1.0000
   8   4  -5     594    1410                                                         470   -0.63    0.00  1.0000
   8   3  -5      31    1480                                                          40   -0.17    0.00  1.0000
  -8  -3  -5     796    1210                                                         840   -0.18    0.00  1.0000
   3  -8  -5       1    1260                                                        -900    0.18    0.00  1.0000
  -3   8  -5       1    1280                                                        -620    0.18    0.00  1.0000
  -8  -2  -5    3009    1320                                                        3480   -0.97    0.00  1.0000
   8   2  -5    2784    1450                                                        3240   -0.97    0.00  1.0000
   2  -8  -5    1268    1180                                                        1580    0.97    0.00  1.0000
  -2   8  -5    2989    1280                                                        3460    0.97    0.00  1.0000
  -8  -1  -5    1107    1330                                                        1200   -0.32    0.00  1.0000
  -1   8  -5       2    1260                                                           0    0.32    0.00  1.0000
   1  -8  -5       2    1110                                                        -610    0.33    0.00  1.0000
   8   1  -5     941    1430                                                        1030   -0.33    0.00  1.0000
   0   8  -5    3957    1350                                                        3340    1.19    0.00  1.0000
   8   0  -5    5222    1450                                                        4510   -1.19    0.00  1.0000
   0  -8  -5    4128    1060                                                        3500    1.19    0.00  1.0000
  -8   0  -5    5691    1460                                                        4950   -1.19    0.00  1.0000
  -8   1  -5     105    1380                                                         -30   -2.39    0.00  1.0000
   1   8  -5    1934    1130                                                        1140    2.39    0.00  1.0000
   8  -1  -5     105    1450                                                        -520   -2.39    0.00  1.0000
  -1  -8  -5     105     940                                                         -10    2.39    0.00  1.0000
   2   8  -5    6062    1510                                                        8719    3.63    0.00  1.0000
   8  -2  -5    6956    1700                                                        9779   -3.62    0.00  1.0000
  -2  -8  -5    8886    1200                                                       12049    3.62    0.00  1.0000
  -8   2  -5    6295    1670                                                        8999   -3.63    0.00  1.0000
   3   8  -5   20296    2170                                                       19658    0.53    0.00  1.0000
   8  -3  -5   26566    2480                                                       25837   -0.53    0.00  1.0000
  -3  -8  -5   26083    1810                                                       25357    0.53    0.00  1.0000
  -8   3  -5   20018    2190                                                       19378   -0.53    0.00  1.0000
   4   8  -5    4632    1270                                                        4480   -0.26    0.00  1.0000
   8  -4  -5    5718    1680                                                        5549    0.26    0.00  1.0000
  -8   4  -5    1196    1520                                                        1120    0.26    0.00  1.0000
  -4  -8  -5    1794     890                                                        1700   -0.26    0.00  1.0000
  -5  -8  -5   12708    1230                                                       12459   -0.26    0.00  1.0000
   8  -5  -5    9367    1940                                                        9159    0.25    0.00  1.0000
  -8   5  -5   10383    1820                                                       10159    0.26    0.00  1.0000
   5   8  -5   11601    1670                                                       11369   -0.25    0.00  1.0000
  -8   6  -5   29541    2860                                                       28137   -0.97    0.00  1.0000
  -6  -8  -5   32491    2290                                                       31007    0.97    0.00  1.0000
   6   8  -5   36091    2690                                                       34537    0.97    0.00  1.0000
   8  -6  -5   31560    2980                                                       30097   -0.97    0.00  1.0000
  -8   7  -5    4313    1660                                                        3690   -1.15    0.00  1.0000
   7   8  -5    6343    1370                                                        5579    1.16    0.00  1.0000
  -7  -8  -5    3869    1070                                                        3280    1.15    0.00  1.0000
  -8   8  -5   29367    2790                                                       30577   -0.82    0.00  1.0000
  -8  -8  -5   25812    2200                                                       26947    0.82    0.00  1.0000
   8   8  -5   25760    2580                                                       26887    0.81    0.00  1.0000
  -8   9  -5    2170    1680                                                        2340   -0.42    0.00  1.0000
   9   8  -5     881    1540                                                         990    0.41    0.00  1.0000
  -9  -8  -5    1663    1850                                                        1810    0.41    0.00  1.0000
  -9  -7  -5    8611    1450                                                        9759   -1.40    0.00  1.0000
   9   7  -5    9973    1750                                                       11199   -1.39    0.00  1.0000
  -7   9  -5   11808    1840                                                       13149    1.40    0.00  1.0000
  -6   9  -5    9553    1800                                                       10779    1.42    0.00  1.0000
   9   6  -5   14315    1910                                                       15808   -1.42    0.00  1.0000
  -9  -6  -5   10832    1550                                                       12139   -1.43    0.00  1.0000
  -5   9  -5   48453    3660                                                       48635   -0.10    0.00  1.0000
  -9  -5  -5   50646    3430                                                       50835    0.10    0.00  1.0000
   9   5  -5   46837    3660                                                       47015    0.10    0.00  1.0000
   4  -9  -5    7468    1740                                                        7459   -0.01    0.00  1.0000
  -9  -4  -5    6589    1470                                                        6579    0.01    0.00  1.0000
   9   4  -5    8856    1690                                                        8849    0.01    0.00  1.0000
  -4   9  -5    9149    1590                                                        9139   -0.01    0.00  1.0000
  -9  -3  -5    4424    1360                                                        4900   -0.82    0.00  1.0000
   3  -9  -5    1625    1450                                                        1920    0.82    0.00  1.0000
  -3   9  -5    2219    1420                                                        2560    0.82    0.00  1.0000
   9   3  -5    1985    1530                                                        2310   -0.82    0.00  1.0000
   9   2  -5   11663    1690                                                        9949   -1.93    0.00  1.0000
  -9  -2  -5    9586    1600                                                        8039   -1.93    0.00  1.0000
   2  -9  -5   11629    1500                                                        9919    1.93    0.00  1.0000
  -2   9  -5   12239    1570                                                       10479    1.93    0.00  1.0000
   9   1  -5     674    1530                                                         970   -1.21    0.00  1.0000
  -9  -1  -5    1168    1410                                                        1550   -1.21    0.00  1.0000
   1  -9  -5      27    1080                                                       -2560    1.22    0.00  1.0000
  -1   9  -5     280    1330                                                         480    1.21    0.00  1.0000
   9   0  -5    2155    1570                                                        2910   -1.76    0.00  1.0000
   0   9  -5       4    1320                                                          90    1.76    0.00  1.0000
   0  -9  -5    3556    1880                                                        4510    1.76    0.00  1.0000
  -9   0  -5    1465    1470                                                        2100   -1.77    0.00  1.0000
   1   9  -5      42    1180                                                        -350    1.52    0.00  1.0000
  -9   1  -5     459    1460                                                         780   -1.52    0.00  1.0000
   9  -1  -5     656    1570                                                        1030   -1.52    0.00  1.0000
  -1  -9  -5      33    1020                                                         150    1.52    0.00  1.0000
   9  -2  -5    3156    1650                                                        2130   -2.34    0.00  1.0000
  -9   2  -5    1033    1510                                                         490   -2.34    0.00  1.0000
  -2  -9  -5    4375     960                                                        3150    2.34    0.00  1.0000
   2   9  -5    3853    1310                                                        2710    2.34    0.00  1.0000
  -9   3  -5       7    1500                                                        -220   -0.63    0.00  1.0000
   3   9  -5       7    1300                                                       -1060    0.64    0.00  1.0000
  -3  -9  -5      39     830                                                          80    0.64    0.00  1.0000
   9  -3  -5    1602    1650                                                        1830   -0.64    0.00  1.0000
  -9   4  -5    1448    1540                                                        1640   -0.57    0.00  1.0000
  -4  -9  -5     804     810                                                         950    0.58    0.00  1.0000
   9  -4  -5      80    1790                                                         130   -0.57    0.00  1.0000
   4   9  -5    1056    1270                                                        1220    0.57    0.00  1.0000
   5   9  -5    3772    1320                                                        3250   -1.03    0.00  1.0000
  -5  -9  -5    2800    1130                                                        2350   -1.04    0.00  1.0000
  -9   5  -5    2874    1620                                                        2420    1.03    0.00  1.0000
   9  -5  -5    2527    1780                                                        2100    1.04    0.00  1.0000
  -9   6  -5      68    1640                                                         320    2.26    0.00  1.0000
  -6  -9  -5    1418    1390                                                        2240   -2.26    0.00  1.0000
   6   9  -5      94    1380                                                       -1020   -2.27    0.00  1.0000
  -9   7  -5     178    1620                                                          80    1.02    0.00  1.0000
   7   9  -5      19    1410                                                        -450   -1.03    0.00  1.0000
  -7  -9  -5    2148     940                                                        1760   -1.03    0.00  1.0000
   8   9  -5      26    1440                                                       -1910    1.18    0.00  1.0000
  -8  -9  -5    1424    1010                                                        1830    1.18    0.00  1.0000
  -9   8  -5      26    1680                                                       -1250   -1.18    0.00  1.0000
  -9  -9  -5    8448    1190                                                        7109    1.78    0.00  1.0000
  -9   9  -5    6922    1820                                                        5719   -1.77    0.00  1.0000
   9   9  -5    5396    1610                                                        4340    1.77    0.00  1.0000
 -10  -9  -5    2111    1420                                                        2680   -1.36    0.00  1.0000
  -9  10  -5      34    1590                                                       -2320    1.36    0.00  1.0000
  10   9  -5     281    1600                                                         510   -1.36    0.00  1.0000
  -8  10  -5    1711    1580                                                        2180    1.24    0.00  1.0000
 -10  -8  -5    1210    1170                                                        1610   -1.25    0.00  1.0000
  10   8  -5      29    1620                                                        -100   -1.25    0.00  1.0000
 -10  -7  -5    8322    1460                                                        8729    0.52    0.00  1.0000
  10   7  -5   10338    1750                                                       10789    0.51    0.00  1.0000
  -7  10  -5    6111    1750                                                        6459   -0.51    0.00  1.0000
 -10  -6  -5     667    1330                                                        1380    2.64    0.00  1.0000
  -6  10  -5     505    1580                                                        1140   -2.64    0.00  1.0000
  10   6  -5    1051    1610                                                        1910    2.64    0.00  1.0000
  -5  10  -5     291    1440                                                       -1050   -3.99    0.00  1.0000
 -10  -5  -5     626    1390                                                        1770    3.99    0.00  1.0000
  10   5  -5     421    1630                                                        1410    3.98    0.00  1.0000
  -4  10  -5      42    1290                                                       -3020   -1.52    0.00  1.0000
  10   4  -5      42    1570                                                        -370    1.52    0.00  1.0000
 -10  -4  -5     272    1360                                                         100    1.52    0.00  1.0000
  10   3  -5   12398    1930                                                       12609   -0.22    0.00  1.0000
  -3  10  -5   13102    1740                                                       13319    0.22    0.00  1.0000
 -10  -3  -5   13948    1770                                                       14179   -0.23    0.00  1.0000
 -10  -2  -5   47761    3390                                                       45385   -1.29    0.00  1.0000
  10   2  -5   48459    3570                                                       46075   -1.28    0.00  1.0000
  -2  10  -5   49873    3320                                                       47445    1.29    0.00  1.0000
   2 -10  -5   43751    3370                                                       41486    1.28    0.00  1.0000
  10   1  -5   14098    2050                                                       14679   -0.57    0.00  1.0000
 -10  -1  -5   14824    1860                                                       15418   -0.56    0.00  1.0000
  -1  10  -5   14612    1700                                                       15198    0.56    0.00  1.0000
   1 -10  -5   11396    2110                                                       11919    0.57    0.00  1.0000
 -10   0  -5   11859    1880                                                       13309   -1.51    0.00  1.0000
   0 -10  -5   13415    1600                                                       14959    1.52    0.00  1.0000
  10   0  -5   14501    2050                                                       16108   -1.52    0.00  1.0000
   0  10  -5   14808    1710                                                       16428    1.52    0.00  1.0000
 -10   1  -5   39472    3110                                                       38976   -0.29    0.00  1.0000
   1  10  -5   40843    2940                                                       40326    0.30    0.00  1.0000
  -1 -10  -5   36636    2690                                                       36156    0.29    0.00  1.0000
  10  -1  -5   37642    3380                                                       37146   -0.30    0.00  1.0000
  10  -2  -5   11593    2020                                                       11829   -0.26    0.00  1.0000
  -2 -10  -5   12432    1310                                                       12679    0.26    0.00  1.0000
 -10   2  -5    8744    1790                                                        8949   -0.25    0.00  1.0000
   2  10  -5   12842    1620                                                       13089    0.25    0.00  1.0000
  10  -3  -5   16470    2240                                                       16108    0.33    0.00  1.0000
   3  10  -5   17616    1790                                                       17248   -0.33    0.00  1.0000
  -3 -10  -5   14881    1510                                                       14539   -0.33    0.00  1.0000
 -10   3  -5   16918    2020                                                       16558    0.33    0.00  1.0000
   4  10  -5   37128    2840                                                       35616    0.93    0.00  1.0000
  -4 -10  -5   37944    2500                                                       36406    0.93    0.00  1.0000
 -10   4  -5   38032    3170                                                       36486   -0.94    0.00  1.0000
  10  -4  -5   40843    3320                                                       39256   -0.93    0.00  1.0000
 -10   5  -5    1126    1610                                                        1150    0.08    0.00  1.0000
  -5 -10  -5    1581     800                                                        1610   -0.09    0.00  1.0000
   5  10  -5     229    1290                                                         240   -0.08    0.00  1.0000
  -6 -10  -5   28639    1920                                                       25697   -2.09    0.00  1.0000
 -10   6  -5   29528    2710                                                       26537    2.09    0.00  1.0000
   6  10  -5   25243    2390                                                       22488   -2.09    0.00  1.0000
 -10   7  -5    3058    1690                                                        3430    0.76    0.00  1.0000
  -7 -10  -5    3963     940                                                        4380   -0.76    0.00  1.0000
   7  10  -5    3999    1520                                                        4420   -0.76    0.00  1.0000
   8  10  -5    5815    1590                                                        4600    1.97    0.00  1.0000
 -10   8  -5    4850    1820                                                        3750   -1.96    0.00  1.0000
  -8 -10  -5    8355    1350                                                        6889    1.97    0.00  1.0000
  -9 -10  -5    2875    1060                                                        3910    2.08    0.00  1.0000
   9  10  -5    2826    1620                                                        3850    2.08    0.00  1.0000
 -10   9  -5     928    1770                                                        1550   -2.08    0.00  1.0000
  10  10  -5     804    1700                                                        1250   -1.64    0.00  1.0000
 -10 -10  -5    2089    1070                                                        2780   -1.64    0.00  1.0000
 -10  10  -5      49    1670                                                       -2110    1.63    0.00  1.0000
  11  10  -5    8307    1910                                                        6429   -2.56    0.00  1.0000
 -10  11  -5   13016    1880                                                       10639    2.56    0.00  1.0000
 -11 -10  -5   12189    1500                                                        9889   -2.56    0.00  1.0000
  11   9  -5      83    1670                                                        -550   -2.14    0.00  1.0000
 -11  -9  -5     437    1180                                                         900   -2.13    0.00  1.0000
  -9  11  -5    3757    1730                                                        4960    2.13    0.00  1.0000
  11   8  -5     919    1690                                                         490   -1.91    0.00  1.0000
  -8  11  -5    1432    1570                                                         880    1.91    0.00  1.0000
 -11  -8  -5    5638    1380                                                        4480   -1.91    0.00  1.0000
  -7  11  -5       4    1500                                                        -330   -0.45    0.00  1.0000
  11   7  -5       4    1620                                                        -380    0.44    0.00  1.0000
 -11  -7  -5    2786    1430                                                        2990    0.44    0.00  1.0000
  -6  11  -5      77    1560                                                       -2380   -2.05    0.00  1.0000
  11   6  -5    3981    1730                                                        2950    2.05    0.00  1.0000
 -11  -6  -5     572    1390                                                         230    2.05    0.00  1.0000
  11   5  -5    6315    1780                                                        4410    3.05    0.00  1.0000
 -11  -5  -5    7224    1510                                                        5179    3.05    0.00  1.0000
  -5  11  -5    6423    1470                                                        4500   -3.05    0.00  1.0000
  -4  11  -5    1163    1500                                                        1370   -0.68    0.00  1.0000
 -11  -4  -5    1273    1480                                                        1490    0.68    0.00  1.0000
  11   4  -5    3040    1750                                                        3370    0.68    0.00  1.0000
  11   3  -5    4877    1820                                                        4940    0.10    0.00  1.0000
  -3  11  -5    5876    1520                                                        5949   -0.11    0.00  1.0000
 -11  -3  -5    4604    1590                                                        4670    0.11    0.00  1.0000
 -11  -2  -5   19469    2040                                                       19978   -0.42    0.00  1.0000
  -2  11  -5   12978    1760                                                       13399    0.43    0.00  1.0000
  11   2  -5   18877    2170                                                       19388   -0.43    0.00  1.0000
  11   1  -5    1831    1890                                                        1970    0.37    0.00  1.0000
 -11  -1  -5    3528    1600                                                        3720    0.37    0.00  1.0000
  -1  11  -5    5228    1300                                                        5459   -0.37    0.00  1.0000
 -11   0  -5    1147    1540                                                         780   -1.39    0.00  1.0000
   0  11  -5      35    1210                                                       -1720    1.38    0.00  1.0000
   0 -11  -5      35    1270                                                       -4920    1.39    0.00  1.0000
  11   0  -5    4036    1820                                                        3320   -1.38    0.00  1.0000
  11  -1  -5      20    1850                                                       -2270   -1.04    0.00  1.0000
   1  11  -5      20    1230                                                        -670    1.05    0.00  1.0000
  -1 -11  -5      20    1120                                                       -1660    1.04    0.00  1.0000
 -11   1  -5     307    1590                                                         170   -1.05    0.00  1.0000
  11  -2  -5      31    1910                                                       -2550   -1.31    0.00  1.0000
   2  11  -5    1550    1360                                                        2020    1.30    0.00  1.0000
 -11   2  -5     266    1580                                                         480   -1.31    0.00  1.0000
  -2 -11  -5      31     990                                                       -1610    1.31    0.00  1.0000
  11  -3  -5      38    1860                                                        -680   -1.45    0.00  1.0000
   3  11  -5      38    1310                                                       -1920    1.45    0.00  1.0000
  -3 -11  -5    1763     950                                                        2320    1.44    0.00  1.0000
 -11   3  -5     704    1670                                                        1070   -1.44    0.00  1.0000
   4  11  -5    1832    1350                                                         990    2.65    0.00  1.0000
 -11   4  -5     128    1630                                                       -1450   -2.64    0.00  1.0000
  -4 -11  -5    2179     840                                                        1250    2.65    0.00  1.0000
  -5 -11  -5     423     810                                                         900    2.20    0.00  1.0000
   5  11  -5    1631    1380                                                        2480    2.20    0.00  1.0000
 -11   5  -5      88    1680                                                         -10   -2.20    0.00  1.0000
   6  11  -5     652    1400                                                         650    0.01    0.00  1.0000
 -11   6  -5     301    1740                                                         300   -0.01    0.00  1.0000
  -6 -11  -5    2743     790                                                        2740    0.01    0.00  1.0000
 -11   7  -5    2496    1740                                                        2760    0.60    0.00  1.0000
   7  11  -5    3590    1460                                                        3910   -0.61    0.00  1.0000
  -7 -11  -5    3133     890                                                        3430   -0.61    0.00  1.0000
 -11   8  -5    7743    1890                                                        8089   -0.46    0.00  1.0000
   8  11  -5    5692    1570                                                        5989    0.45    0.00  1.0000
  -8 -11  -5    5316     990                                                        5599    0.45    0.00  1.0000
   9  11  -5    4887    1620                                                        4440   -0.77    0.00  1.0000
  -9 -11  -5    2976    1130                                                        2630   -0.76    0.00  1.0000
 -11   9  -5    6683    1930                                                        6159    0.76    0.00  1.0000
 -11  10  -5     181    1780                                                         610    2.63    0.00  1.0000
  10  11  -5     126    1650                                                       -2980   -2.62    0.00  1.0000
 -10 -11  -5     715    1060                                                        1440   -2.62    0.00  1.0000
 -11 -11  -5    6563    1310                                                        8869   -3.08    0.00  1.0000
  11  11  -5    6216    2310                                                        8459   -3.07    0.00  1.0000
 -11  11  -5    4167    2100                                                        6039    3.08    0.00  1.0000
  12  11  -5    2667    1830                                                        3380    1.52    0.00  1.0000
 -11  12  -5     947    1790                                                        1390   -1.52    0.00  1.0000
 -12 -11  -5    2336    1410                                                        3010    1.53    0.00  1.0000
 -12 -10  -5     600    1230                                                         780    0.80    0.00  1.0000
 -10  12  -5     242    1850                                                         360   -0.80    0.00  1.0000
  12   9  -5     255    1870                                                         320   -0.45    0.00  1.0000
 -12  -9  -5    1144    1350                                                        1280   -0.46    0.00  1.0000
  -9  12  -5    2532    1820                                                        2730    0.45    0.00  1.0000
  -8  12  -5    8164    1900                                                        9349    1.48    0.00  1.0000
 -12  -8  -5    9036    1650                                                       10279   -1.48    0.00  1.0000
  12   8  -5    6931    2060                                                        8019   -1.47    0.00  1.0000
 -12  -7  -5    3375    1450                                                        3280   -0.19    0.00  1.0000
  -7  12  -5    2296    1560                                                        2220    0.19    0.00  1.0000
  12   7  -5     693    1800                                                         650   -0.19    0.00  1.0000
  -6  12  -5    6799    1660                                                        6979    0.25    0.00  1.0000
  12   6  -5    7017    1990                                                        7199   -0.25    0.00  1.0000
 -12  -6  -5    6655    1630                                                        6829   -0.25    0.00  1.0000
  12   5  -5    3476    1890                                                        3750    0.53    0.00  1.0000
 -12  -5  -5    4032    1570                                                        4330    0.54    0.00  1.0000
  -5  12  -5    1431    1530                                                        1610   -0.54    0.00  1.0000
  -4  12  -5    3376    1450                                                        3280    0.20    0.00  1.0000
  12   4  -5    6381    1880                                                        6249   -0.19    0.00  1.0000
 -12  -4  -5    2787    1570                                                        2700   -0.19    0.00  1.0000
 -12  -3  -5    5217    1650                                                        4580    1.06    0.00  1.0000
  -3  12  -5    2030    1430                                                        1640   -1.07    0.00  1.0000
  12   3  -5    4073    1910                                                        3510    1.07    0.00  1.0000
 -12  -2  -5    2648    1630                                                        2320    0.77    0.00  1.0000
  12   2  -5      11    1740                                                       -1870    0.78    0.00  1.0000
  -2  12  -5      11    1380                                                       -1650   -0.78    0.00  1.0000
  12   1  -5    4545    2060                                                        5429    1.46    0.00  1.0000
  -1  12  -5    2623    1480                                                        3300   -1.46    0.00  1.0000
 -12  -1  -5    2471    1660                                                        3130    1.46    0.00  1.0000
  12   0  -5       0    1960                                                         -30   -0.11    0.00  1.0000
   0  12  -5     866    1400                                                         840    0.10    0.00  1.0000
 -12   0  -5       0    1630                                                       -1170   -0.10    0.00  1.0000
 -12   1  -5    7684    1810                                                        8049   -0.48    0.00  1.0000
   1  12  -5    5797    1530                                                        6119    0.49    0.00  1.0000
  12  -1  -5    5484    2140                                                        5799   -0.49    0.00  1.0000
 -12   2  -5    4510    1770                                                        4390   -0.21    0.00  1.0000
   2  12  -5    5726    1530                                                        5589    0.21    0.00  1.0000
  12  -2  -5    4098    2060                                                        3980   -0.22    0.00  1.0000
   3  12  -5     304    1360                                                         410   -0.66    0.00  1.0000
 -12   3  -5    1447    1760                                                        1670    0.66    0.00  1.0000
   4  12  -5    6767    1460                                                        5999   -1.12    0.00  1.0000
 -12   4  -5    6841    1850                                                        6069    1.12    0.00  1.0000
   5  12  -5    6205    1440                                                        5679   -0.80    0.00  1.0000
 -12   5  -5      11    1780                                                       -1720    0.79    0.00  1.0000
   6  12  -5    2269    1470                                                        2450   -0.44    0.00  1.0000
 -12   6  -5       3    1740                                                       -1050    0.44    0.00  1.0000
 -12   7  -5      33    1810                                                          90    0.87    0.00  1.0000
   7  12  -5    1543    1410                                                        1850   -0.87    0.00  1.0000
 -12   8  -5     841    1830                                                        1180   -1.25    0.00  1.0000
   8  12  -5      29    1450                                                        -810    1.26    0.00  1.0000
   9  12  -5     911    1550                                                        1110    0.73    0.00  1.0000
 -12   9  -5     840    1840                                                        1030   -0.73    0.00  1.0000
  10  12  -5   16107    2110                                                       13939    2.07    0.00  1.0000
 -12  10  -5    6491    2020                                                        5139   -2.08    0.00  1.0000
 -12  11  -5       0    1870                                                       -2030    0.09    0.00  1.0000
  11  12  -5     650    1660                                                         670   -0.09    0.00  1.0000
 -13  -9  -5    2240    1460                                                        2410   -0.41    0.00  1.0000
  -9  13  -5       3    1750                                                        -130    0.41    0.00  1.0000
  13   9  -5    1310    2010                                                        1440   -0.41    0.00  1.0000
  -8  13  -5      77    1920                                                        -240    2.04    0.00  1.0000
  13   8  -5      76    2660                                                       -3220   -2.04    0.00  1.0000
 -13  -8  -5    3105    1570                                                        2210   -2.04    0.00  1.0000
  -7  13  -5    4875    1740                                                        4220    1.14    0.00  1.0000
 -13  -7  -5      64    1550                                                          10   -1.14    0.00  1.0000
  13   7  -5    1159    1920                                                         850   -1.14    0.00  1.0000
  13   6  -5    4546    2160                                                        3650   -1.64    0.00  1.0000
  -6  13  -5    3434    1530                                                        2660    1.64    0.00  1.0000
 -13  -6  -5    3626    1610                                                        2830   -1.64    0.00  1.0000
  13   5  -5    3574    2080                                                        3980   -0.77    0.00  1.0000
 -13  -5  -5    3504    1660                                                        3910   -0.78    0.00  1.0000
  -5  13  -5      11    1510                                                        -350    0.78    0.00  1.0000
  -4  13  -5     482    1410                                                         490    0.04    0.00  1.0000
 -13  -4  -5       0    1550                                                       -3050   -0.05    0.00  1.0000
  13   4  -5    2500    2050                                                        2520   -0.05    0.00  1.0000
  13   3  -5    1830    2130                                                        2620    1.96    0.00  1.0000
 -13  -3  -5      71    1570                                                       -2460    1.96    0.00  1.0000
  -3  13  -5      70    1390                                                       -2050   -1.96    0.00  1.0000
 -13  -2  -5    2155    1690                                                        2820    1.56    0.00  1.0000
  13   2  -5    1905    2120                                                        2530    1.55    0.00  1.0000
  -2  13  -5    1194    1330                                                        1700   -1.56    0.00  1.0000
  -1  13  -5    4190    1320                                                        3240   -1.82    0.00  1.0000
 -13  -1  -5    5143    1730                                                        4080    1.83    0.00  1.0000
  13   1  -5    2841    2010                                                        2070    1.82    0.00  1.0000
 -13   0  -5     131    1700                                                         320    1.50    0.00  1.0000
   0  13  -5    2215    1350                                                        2860   -1.50    0.00  1.0000
  13   0  -5     936    2070                                                        1370    1.50    0.00  1.0000
   1  13  -5    1265    1310                                                        1110   -0.53    0.00  1.0000
 -13   1  -5       5    1660                                                       -1750    0.52    0.00  1.0000
 -13   2  -5    3355    1850                                                        3180    0.36    0.00  1.0000
   2  13  -5    4443    1410                                                        4240   -0.36    0.00  1.0000
   3  13  -5   10798    1580                                                       11119   -0.36    0.00  1.0000
 -13   3  -5   10115    1990                                                       10419    0.35    0.00  1.0000
 -13   4  -5      11    1780                                                       -1380    0.77    0.00  1.0000
   4  13  -5     669    1300                                                         510   -0.77    0.00  1.0000
   5  13  -5       1    1350                                                        -280   -0.26    0.00  1.0000
 -13   5  -5     499    1860                                                         550    0.26    0.00  1.0000
   6  13  -5      22    1430                                                       -1050    1.09    0.00  1.0000
 -13   6  -5      22    1830                                                       -1730   -1.08    0.00  1.0000
 -13   7  -5    1253    1840                                                         900    1.26    0.00  1.0000
   7  13  -5    2634    1460                                                        2110   -1.26    0.00  1.0000
 -13   8  -5    2062    2230                                                        1710   -0.95    0.00  1.0000
   8  13  -5      16    1470                                                        -180    0.94    0.00  1.0000
   9  13  -5   13264    2140                                                       12779    0.50    0.00  1.0000
 -13   9  -5   12714    2150                                                       12239   -0.50    0.00  1.0000
  -8  14  -5      77    1710                                                        -500    2.05    0.00  1.0000
  14   8  -5      77    1950                                                       -1390   -2.05    0.00  1.0000
 -14  -8  -5    2572    1640                                                        1760   -2.05    0.00  1.0000
  14   7  -5       4    2230                                                       -1180    0.48    0.00  1.0000
 -14  -7  -5    2143    1640                                                        1960    0.47    0.00  1.0000
 -14  -6  -5    2669    1680                                                        2030    1.54    0.00  1.0000
  -6  14  -5      44    1460                                                       -2280   -1.55    0.00  1.0000
 -14  -5  -5      61    1620                                                        -420    1.83    0.00  1.0000
  -5  14  -5      61    1470                                                        -180   -1.82    0.00  1.0000
  14   5  -5     855    2100                                                         460    1.82    0.00  1.0000
  -4  14  -5      53    1550                                                       -1120   -1.70    0.00  1.0000
 -14  -4  -5     493    1640                                                         870    1.70    0.00  1.0000
  14   4  -5     983    2100                                                        1490    1.69    0.00  1.0000
  14   3  -5    1901    2070                                                        2620    1.77    0.00  1.0000
  -3  14  -5      57    1320                                                       -1270   -1.77    0.00  1.0000
 -14  -3  -5      58    1660                                                       -1090    1.78    0.00  1.0000
  14   2  -5    5324    2180                                                        4960    0.59    0.00  1.0000
 -14  -2  -5    2642    1660                                                        2390    0.59    0.00  1.0000
  -2  14  -5    1840    1380                                                        1630   -0.59    0.00  1.0000
  14   1  -5    5623    2260                                                        5459   -0.26    0.00  1.0000
 -14  -1  -5    8306    1820                                                        8099   -0.27    0.00  1.0000
  -1  14  -5    8089    1650                                                        7889    0.26    0.00  1.0000
   0  14  -5    2632    1470                                                        2230   -0.95    0.00  1.0000
 -14   0  -5    3483    1750                                                        3020    0.95    0.00  1.0000
 -14   1  -5       6    1700                                                        -370    0.59    0.00  1.0000
   1  14  -5    1591    1430                                                        1800   -0.59    0.00  1.0000
 -14   2  -5    1916    1790                                                        2420    1.27    0.00  1.0000
   2  14  -5    3184    1430                                                        3820   -1.26    0.00  1.0000
   3  14  -5    7522    1500                                                        6789   -1.01    0.00  1.0000
 -14   3  -5    7028    1950                                                        6319    1.02    0.00  1.0000
 -14   4  -5      20    1760                                                         110    1.41    0.00  1.0000
   4  14  -5      36    1370                                                        -670   -1.41    0.00  1.0000
 -14   5  -5    3406    1980                                                        4370    1.81    0.00  1.0000
   5  14  -5    4921    1580                                                        6069   -1.81    0.00  1.0000
   6  14  -5       0    1520                                                        -580   -0.14    0.00  1.0000
 -14   6  -5    2283    1870                                                        2340    0.14    0.00  1.0000
   7  14  -5    3853    1540                                                        2410   -3.03    0.00  1.0000
   8  14  -5       3    2050                                                        -630    0.43    0.00  1.0000
 -14   8  -5     801    1920                                                         700   -0.43    0.00  1.0000
 -15  -6  -5    3584    1720                                                        4280    1.30    0.00  1.0000
  -6  15  -5      31    1540                                                        -870   -1.30    0.00  1.0000
  15   6  -5    2307    2230                                                        2870    1.29    0.00  1.0000
 -15  -5  -5   10660    1950                                                       11339    0.76    0.00  1.0000
  15   5  -5    7911    2330                                                        8499    0.76    0.00  1.0000
  -4  15  -5   10078    1790                                                        9479   -0.71    0.00  1.0000
  15   4  -5    7661    2730                                                        7139    0.71    0.00  1.0000
 -15  -4  -5   14350    2040                                                       13639    0.70    0.00  1.0000
  -3  15  -5    2518    1410                                                        2660   -0.33    0.00  1.0000
 -15  -3  -5    2073    1790                                                        2200    0.32    0.00  1.0000
  15   3  -5    3863    2980                                                        4040    0.33    0.00  1.0000
 -15  -2  -5    2611    1850                                                        2720    0.25    0.00  1.0000
  -2  15  -5     906    1490                                                         970   -0.25    0.00  1.0000
  -1  15  -5    7128    1670                                                        8429    1.73    0.00  1.0000
 -15  -1  -5    9542    2090                                                       11039   -1.73    0.00  1.0000
   0  15  -5    3392    1420                                                        3310    0.17    0.00  1.0000
 -15   0  -5    5297    1950                                                        5199   -0.16    0.00  1.0000
   1  15  -5       2    1390                                                       -3080    0.30    0.00  1.0000
 -15   1  -5     201    1890                                                         240   -0.31    0.00  1.0000
   2  15  -5      22    1390                                                       -1320   -1.09    0.00  1.0000
 -15   2  -5     985    1890                                                        1300    1.09    0.00  1.0000
   3  15  -5    1954    1490                                                        1920   -0.09    0.00  1.0000
 -15   3  -5       0    1880                                                       -1740    0.09    0.00  1.0000
   4  15  -5     240    1470                                                         290    0.36    0.00  1.0000
 -15   4  -5       2    1920                                                       -1860   -0.36    0.00  1.0000
   5  15  -5      12    1520                                                       -1270   -0.82    0.00  1.0000
 -15   5  -5    2478    2310                                                        2140    0.82    0.00  1.0000
   6  15  -5     185    1760                                                         230    0.37    0.00  1.0000
 -15   6  -5       3    1910                                                       -2340   -0.37    0.00  1.0000
 -16  -3  -5      91    1920                                                       -1080   -2.23    0.00  1.0000
  -3  16  -5      91    2270                                                       -1960    2.23    0.00  1.0000
  -2  16  -5       9    2410                                                        -520    0.69    0.00  1.0000
 -16  -2  -5       9    1870                                                       -3470   -0.68    0.00  1.0000
  -1  16  -5     635    1590                                                        1450    3.01    0.00  1.0000
 -16  -1  -5    1715    1980                                                        2950   -3.02    0.00  1.0000
 -16   0  -5      19    1930                                                       -1530   -1.02    0.00  1.0000
   0  16  -5    2800    1450                                                        2360    1.01    0.00  1.0000
 -16   1  -5     701    2020                                                         930   -0.94    0.00  1.0000
   1  16  -5     345    1530                                                         510    0.94    0.00  1.0000
   2  16  -5    7715    1620                                                        6969   -1.02    0.00  1.0000
 -16   2  -5    2517    2070                                                        2100    1.02    0.00  1.0000
 -16   3  -5   16606    2580                                                       15778   -0.76    0.00  1.0000
   3  16  -5   24613    2340                                                       23598    0.76    0.00  1.0000
   0   0  -6   16787    2000                                                       19118    2.03    0.00  1.0000
  -1   0  -6     728    1210                                                        1060   -1.30    0.00  1.0000
   1   0  -6      31    1150                                                       -1080   -1.30    0.00  1.0000
   0   1  -6      31    1250                                                        -420   -1.31    0.00  1.0000
   0  -1  -6     215    1140                                                         410   -1.31    0.00  1.0000
   1   1  -6      14    1230                                                         320   -3.31    0.00  1.0000
  -1  -1  -6     351    1200                                                        1080   -3.30    0.00  1.0000
   1  -1  -6     318    1130                                                        1020   -3.30    0.00  1.0000
  -1   1  -6    1082    1200                                                        2210   -3.30    0.00  1.0000
  -1   2  -6    5258    1340                                                        5949   -1.08    0.00  1.0000
   1  -2  -6    7652    1370                                                        8479   -1.08    0.00  1.0000
   2   1  -6    8670    1420                                                        9549   -1.08    0.00  1.0000
  -2  -1  -6    7213    1330                                                        8019   -1.08    0.00  1.0000
   0  -2  -6    9847    1400                                                       10479    0.73    0.00  1.0000
   0   2  -6   11689    1560                                                       12379    0.74    0.00  1.0000
   2   0  -6    9828    1510                                                       10459    0.73    0.00  1.0000
  -2   0  -6    8669    1460                                                        9259    0.73    0.00  1.0000
  -1  -2  -6   26731    2270                                                       25647    0.78    0.00  1.0000
   2  -1  -6   25524    2350                                                       24468    0.78    0.00  1.0000
  -2   1  -6   30359    2350                                                       29207    0.78    0.00  1.0000
   1   2  -6   27013    2330                                                       25927    0.78    0.00  1.0000
  -2  -2  -6    1703    1200                                                        2110    1.09    0.00  1.0000
   2   2  -6    1910    1310                                                        2340    1.09    0.00  1.0000
  -2   2  -6    1223    1210                                                        1570    1.09    0.00  1.0000
   2  -2  -6      90    1200                                                         200    1.08    0.00  1.0000
  -3  -2  -6    4522    1210                                                        3670    1.56    0.00  1.0000
   2  -3  -6    3202    1240                                                        2490    1.56    0.00  1.0000
  -2   3  -6    2239    1320                                                        1650    1.57    0.00  1.0000
   3   2  -6    5450    1350                                                        4510    1.56    0.00  1.0000
   3   1  -6   14026    1710                                                       14829    0.78    0.00  1.0000
  -3  -1  -6   14383    1640                                                       15198    0.78    0.00  1.0000
  -1   3  -6   13132    1700                                                       13909    0.78    0.00  1.0000
   1  -3  -6   12945    1610                                                       13719    0.78    0.00  1.0000
   0  -3  -6    3946    1160                                                        4290    0.63    0.00  1.0000
   3   0  -6    4706    1380                                                        5079    0.62    0.00  1.0000
  -3   0  -6    2837    1300                                                        3130    0.63    0.00  1.0000
   0   3  -6    5860    1450                                                        6279    0.63    0.00  1.0000
   3  -1  -6    1459    1260                                                        1710    0.74    0.00  1.0000
   1   3  -6    1627    1360                                                        1890    0.73    0.00  1.0000
  -3   1  -6     136    1270                                                         220    0.74    0.00  1.0000
  -1  -3  -6    2856    1130                                                        3200    0.73    0.00  1.0000
   3  -2  -6    3866    1270                                                        3490   -0.72    0.00  1.0000
   2   3  -6    2873    1330                                                        2550   -0.73    0.00  1.0000
  -3   2  -6    2883    1280                                                        2560   -0.72    0.00  1.0000
  -2  -3  -6    2190    1160                                                        1910   -0.72    0.00  1.0000
   3   3  -6    8866    1480                                                        8379   -0.61    0.00  1.0000
  -3  -3  -6    8714    1310                                                        8229   -0.62    0.00  1.0000
   3  -3  -6    8206    1460                                                        7739   -0.61    0.00  1.0000
  -3   3  -6    9782    1470                                                        9269   -0.61    0.00  1.0000
   4   3  -6    1537    1340                                                        2140   -1.65    0.00  1.0000
  -3   4  -6      50    1310                                                        -900   -1.65    0.00  1.0000
  -4  -3  -6     362    1160                                                         680   -1.65    0.00  1.0000
   3  -4  -6      55    1220                                                         210   -1.65    0.00  1.0000
  -2   4  -6   13366    1680                                                       13729   -0.36    0.00  1.0000
  -4  -2  -6    7418    1410                                                        7689   -0.37    0.00  1.0000
   2  -4  -6    9934    1480                                                       10249   -0.37    0.00  1.0000
   4   2  -6   12317    1630                                                       12669   -0.37    0.00  1.0000
  -1   4  -6    3450    1360                                                        3190    0.53    0.00  1.0000
  -4  -1  -6    2462    1230                                                        2240    0.53    0.00  1.0000
   4   1  -6    4470    1410                                                        4170    0.53    0.00  1.0000
   1  -4  -6    1996    1190                                                        1800    0.53    0.00  1.0000
   0   4  -6      15    1320                                                       -1440    0.89    0.00  1.0000
   0  -4  -6      15    1120                                                         -70    0.89    0.00  1.0000
  -4   0  -6      15    1230                                                        -680    0.89    0.00  1.0000
   4   0  -6      15    1240                                                        -890    0.89    0.00  1.0000
  -1  -4  -6   10138    1280                                                        8089    2.51    0.00  1.0000
   1   4  -6   10252    1470                                                        8189    2.52    0.00  1.0000
  -4   1  -6    9913    1470                                                        7889    2.51    0.00  1.0000
   4  -1  -6   10252    1500                                                        8189    2.51    0.00  1.0000
   2   4  -6     525    1240                                                         810    1.30    0.00  1.0000
   4  -2  -6    1273    1280                                                        1700    1.30    0.00  1.0000
  -2  -4  -6     862    1140                                                        1220    1.30    0.00  1.0000
  -4   2  -6    1535    1300                                                        2000    1.30    0.00  1.0000
   3   4  -6     476    1270                                                         590    0.58    0.00  1.0000
  -3  -4  -6     145    1150                                                         210    0.57    0.00  1.0000
  -4   3  -6       6    1280                                                        -450    0.57    0.00  1.0000
   4  -3  -6    1477    1300                                                        1670    0.57    0.00  1.0000
   4  -4  -6    4419    1420                                                        5169   -1.27    0.00  1.0000
  -4  -4  -6    3279    1180                                                        3930   -1.27    0.00  1.0000
   4   4  -6    5122    1490                                                        5929   -1.27    0.00  1.0000
  -4   4  -6    2141    1340                                                        2670   -1.26    0.00  1.0000
   5   4  -6    5005    1510                                                        4980   -0.04    0.00  1.0000
  -4   5  -6    3319    1460                                                        3300   -0.04    0.00  1.0000
  -5  -4  -6    4734    1230                                                        4710   -0.04    0.00  1.0000
   4  -5  -6    6338    1490                                                        6309   -0.04    0.00  1.0000
   3  -5  -6    1574    1290                                                        2240    1.79    0.00  1.0000
   5   3  -6    1093    1430                                                        1660    1.80    0.00  1.0000
  -3   5  -6      59    1310                                                        -100    1.79    0.00  1.0000
  -5  -3  -6    1340    1190                                                        1960    1.79    0.00  1.0000
  -5  -2  -6    1804    1250                                                        2420    1.57    0.00  1.0000
   2  -5  -6    1527    1250                                                        2100    1.58    0.00  1.0000
   5   2  -6    2054    1410                                                        2710    1.58    0.00  1.0000
  -2   5  -6      46    1300                                                        -210    1.58    0.00  1.0000
  -1   5  -6    1325    1280                                                        1520    0.61    0.00  1.0000
   1  -5  -6    2305    1210                                                        2560    0.60    0.00  1.0000
   5   1  -6     688    1380                                                         830    0.60    0.00  1.0000
  -5  -1  -6    1038    1230                                                        1210    0.60    0.00  1.0000
   0   5  -6      22    1270                                                        -320   -1.09    0.00  1.0000
   0  -5  -6     291    1050                                                         470   -1.08    0.00  1.0000
   5   0  -6      22    1340                                                         -60   -1.09    0.00  1.0000
  -5   0  -6      22    1250                                                        -930   -1.09    0.00  1.0000
   5  -1  -6    4407    1430                                                        4560   -0.27    0.00  1.0000
  -5   1  -6    1103    1380                                                        1180   -0.26    0.00  1.0000
  -1  -5  -6    2622    1150                                                        2740   -0.27    0.00  1.0000
   1   5  -6    3623    1370                                                        3760   -0.26    0.00  1.0000
  -5   2  -6     850    1340                                                         930   -0.31    0.00  1.0000
  -2  -5  -6    1338    1080                                                        1440   -0.32    0.00  1.0000
   5  -2  -6       2    1320                                                       -1370   -0.32    0.00  1.0000
   2   5  -6       2    1280                                                       -1000   -0.32    0.00  1.0000
  -5   3  -6    2202    1460                                                        2160    0.11    0.00  1.0000
   5  -3  -6    1394    1460                                                        1360    0.11    0.00  1.0000
   3   5  -6     866    1340                                                         840    0.11    0.00  1.0000
  -3  -5  -6    3493    1180                                                        3440    0.11    0.00  1.0000
  -5   4  -6    3241    1450                                                        3520   -0.56    0.00  1.0000
   4   5  -6    5535    1520                                                        5899   -0.56    0.00  1.0000
   5  -4  -6    1782    1470                                                        1990   -0.56    0.00  1.0000
  -4  -5  -6    2112    1140                                                        2340   -0.56    0.00  1.0000
   5  -5  -6    3557    1470                                                        3870   -0.60    0.00  1.0000
   5   5  -6       7    1490                                                        -320   -0.60    0.00  1.0000
  -5   5  -6       7    1350                                                        -830   -0.60    0.00  1.0000
  -5  -5  -6       7    1060                                                        -610   -0.60    0.00  1.0000
   5  -6  -6    3364    1560                                                        2820   -1.15    0.00  1.0000
   6   5  -6    2649    1530                                                        2170   -1.14    0.00  1.0000
  -6  -5  -6    3134    1190                                                        2610   -1.14    0.00  1.0000
  -5   6  -6    2263    1450                                                        1820   -1.15    0.00  1.0000
  -6  -4  -6    1713    1200                                                        1890   -0.49    0.00  1.0000
  -4   6  -6    1354    1480                                                        1510   -0.48    0.00  1.0000
   6   4  -6       1    1430                                                          10   -0.49    0.00  1.0000
   4  -6  -6     614    1400                                                         720   -0.48    0.00  1.0000
  -3   6  -6    2286    1370                                                        2970    1.56    0.00  1.0000
  -6  -3  -6    4037    1290                                                        4930    1.56    0.00  1.0000
   3  -6  -6    3784    1450                                                        4650    1.56    0.00  1.0000
   6   3  -6    3488    1490                                                        4320    1.56    0.00  1.0000
  -6  -2  -6    2222    1280                                                        1870    0.91    0.00  1.0000
   6   2  -6    3729    1470                                                        3270    0.91    0.00  1.0000
   2  -6  -6     120    1220                                                          50    0.91    0.00  1.0000
  -2   6  -6    1137    1280                                                         890    0.91    0.00  1.0000
   1  -6  -6       8    1190                                                         -90   -0.68    0.00  1.0000
  -6  -1  -6    3168    1310                                                        2850   -0.68    0.00  1.0000
  -1   6  -6     984    1330                                                         810   -0.68    0.00  1.0000
   6   1  -6    5575    1520                                                        5149   -0.68    0.00  1.0000
  -6   0  -6    1521    1330                                                         780   -2.59    0.00  1.0000
   6   0  -6    4980    1440                                                        3540   -2.59    0.00  1.0000
   0   6  -6     808    1330                                                         300   -2.60    0.00  1.0000
   0  -6  -6    3782    1160                                                        2540   -2.59    0.00  1.0000
   6  -1  -6    4483    1510                                                        3470   -1.88    0.00  1.0000
  -1  -6  -6    4357    1160                                                        3360   -1.88    0.00  1.0000
   1   6  -6    3462    1400                                                        2580   -1.88    0.00  1.0000
  -6   1  -6    1774    1400                                                        1160   -1.88    0.00  1.0000
  -6   2  -6    2916    1430                                                        2760   -0.34    0.00  1.0000
   6  -2  -6    2708    1530                                                        2560   -0.34    0.00  1.0000
   2   6  -6    4156    1390                                                        3970   -0.34    0.00  1.0000
  -2  -6  -6    5646    1130                                                        5429   -0.34    0.00  1.0000
  -3  -6  -6    1094    1080                                                        1580    1.56    0.00  1.0000
   3   6  -6     521    1390                                                         870    1.56    0.00  1.0000
   6  -3  -6     865    1490                                                        1300    1.55    0.00  1.0000
  -6   3  -6     800    1440                                                        1220    1.55    0.00  1.0000
  -4  -6  -6     758    1120                                                        1150    1.49    0.00  1.0000
   6  -4  -6     172    1460                                                         380    1.49    0.00  1.0000
   4   6  -6     480    1410                                                         800    1.49    0.00  1.0000
  -6   4  -6     234    1500                                                         470    1.49    0.00  1.0000
   6  -5  -6    7248    1700                                                        7579    0.45    0.00  1.0000
  -5  -6  -6    7004    1270                                                        7329    0.45    0.00  1.0000
   5   6  -6    6751    1600                                                        7069    0.45    0.00  1.0000
  -6   5  -6    4341    1660                                                        4600    0.45    0.00  1.0000
   6  -6  -6   14098    2000                                                       15338   -1.19    0.00  1.0000
  -6  -6  -6   14980    1650                                                       16258   -1.20    0.00  1.0000
  -6   6  -6   14426    1960                                                       15678   -1.19    0.00  1.0000
   6   6  -6   13965    1860                                                       15198   -1.19    0.00  1.0000
  -6   7  -6    1911    1630                                                        1770   -0.38    0.00  1.0000
   6  -7  -6    3245    1780                                                        3060   -0.38    0.00  1.0000
  -7  -6  -6    5821    1280                                                        5569   -0.39    0.00  1.0000
   7   6  -6    4943    1620                                                        4710   -0.39    0.00  1.0000
   5  -7  -6     699    1580                                                         860   -0.67    0.00  1.0000
   7   5  -6    1073    1540                                                        1270   -0.67    0.00  1.0000
  -7  -5  -6    1499    1210                                                        1730   -0.67    0.00  1.0000
  -5   7  -6    1378    1410                                                        1600   -0.67    0.00  1.0000
   4  -7  -6      32    1460                                                       -1070   -1.33    0.00  1.0000
  -7  -4  -6     234    1260                                                         440   -1.33    0.00  1.0000
  -4   7  -6     938    1500                                                        1320   -1.33    0.00  1.0000
   7   4  -6    2786    1520                                                        3420   -1.33    0.00  1.0000
   7   3  -6   15985    1830                                                       15538    0.42    0.00  1.0000
  -7  -3  -6   10114    1550                                                        9759    0.42    0.00  1.0000
  -3   7  -6   11996    1650                                                       11609    0.42    0.00  1.0000
   3  -7  -6   13527    1670                                                       13119    0.41    0.00  1.0000
  -7  -2  -6     398    1320                                                        1010    2.77    0.00  1.0000
   7   2  -6    1147    1540                                                        2090    2.77    0.00  1.0000
   2  -7  -6    1813    1380                                                        2960    2.76    0.00  1.0000
  -2   7  -6     140    1340                                                        -490    2.76    0.00  1.0000
  -7  -1  -6    3493    1370                                                        1970    3.44    0.00  1.0000
  -1   7  -6    1987    1440                                                         890    3.45    0.00  1.0000
   7   1  -6    3601    1560                                                        2050    3.44    0.00  1.0000
   1  -7  -6    7469    1280                                                        5139    3.45    0.00  1.0000
   7   0  -6    1292    1580                                                        1030    0.90    0.00  1.0000
   0   7  -6     233    1390                                                         130    0.90    0.00  1.0000
   0  -7  -6    1781    1190                                                        1470    0.90    0.00  1.0000
  -7   0  -6    2010    1360                                                        1680    0.90    0.00  1.0000
   7  -1  -6    1054    1540                                                        1450   -1.31    0.00  1.0000
  -1  -7  -6    4924    1210                                                        5739   -1.30    0.00  1.0000
  -7   1  -6    3954    1440                                                        4690   -1.31    0.00  1.0000
   1   7  -6    3252    1490                                                        3920   -1.31    0.00  1.0000
   7  -2  -6     828    1550                                                        1200   -1.37    0.00  1.0000
  -2  -7  -6    2877    1150                                                        3540   -1.37    0.00  1.0000
   2   7  -6      34    1350                                                       -1180   -1.37    0.00  1.0000
  -7   2  -6    1158    1450                                                        1590   -1.37    0.00  1.0000
  -7   3  -6      28    1450                                                        -400    1.24    0.00  1.0000
   3   7  -6     393    1340                                                         630    1.23    0.00  1.0000
  -3  -7  -6    1599    1060                                                        2050    1.24    0.00  1.0000
   7  -3  -6     963    1590                                                        1320    1.24    0.00  1.0000
  -4  -7  -6      83    1040                                                       -1270    2.13    0.00  1.0000
   4   7  -6      83    1410                                                       -1080    2.13    0.00  1.0000
   7  -4  -6    2419    1640                                                        3400    2.13    0.00  1.0000
  -7   4  -6     839    1480                                                        1450    2.13    0.00  1.0000
  -5  -7  -6    9516    1270                                                        7569    2.47    0.00  1.0000
  -7   5  -6    6513    1570                                                        4920    2.47    0.00  1.0000
   5   7  -6    9785    1600                                                        7809    2.47    0.00  1.0000
   7  -5  -6    5834    1730                                                        4330    2.47    0.00  1.0000
  -7   6  -6    8519    1750                                                        9029    0.64    0.00  1.0000
   6   7  -6   11919    1760                                                       12529    0.64    0.00  1.0000
  -6  -7  -6   10204    1390                                                       10769    0.64    0.00  1.0000
   7  -6  -6   12802    2050                                                       13429    0.64    0.00  1.0000
   7  -7  -6   11932    2150                                                       11459    0.51    0.00  1.0000
  -7  -7  -6   11556    1430                                                       11089    0.51    0.00  1.0000
   7   7  -6   11905    1750                                                       11429    0.51    0.00  1.0000
  -7   7  -6   11053    1800                                                       10599    0.51    0.00  1.0000
  -8  -7  -6   13008    1580                                                       13949   -0.95    0.00  1.0000
   8   7  -6   11674    1830                                                       12569   -0.95    0.00  1.0000
  -7   8  -6   11270    1950                                                       12149   -0.95    0.00  1.0000
  -6   8  -6   16043    2070                                                       17018    0.89    0.00  1.0000
   6  -8  -6   14362    2280                                                       15288    0.89    0.00  1.0000
   8   6  -6   17866    2130                                                       18898    0.89    0.00  1.0000
  -8  -6  -6   15853    1790                                                       16828    0.89    0.00  1.0000
   8   5  -6    5525    1660                                                        6229    1.07    0.00  1.0000
  -8  -5  -6    3302    1310                                                        3850    1.07    0.00  1.0000
  -5   8  -6    3227    1490                                                        3770    1.07    0.00  1.0000
   5  -8  -6    2291    1780                                                        2750    1.07    0.00  1.0000
   8   4  -6   10899    1800                                                       11789   -0.98    0.00  1.0000
   4  -8  -6    5291    1700                                                        5919   -0.98    0.00  1.0000
  -4   8  -6    8438    1710                                                        9229   -0.98    0.00  1.0000
  -8  -4  -6    9369    1530                                                       10199   -0.98    0.00  1.0000
   3  -8  -6   21360    2140                                                       19278   -1.71    0.00  1.0000
  -8  -3  -6   23766    2180                                                       21558   -1.71    0.00  1.0000
  -3   8  -6   21578    2010                                                       19488   -1.71    0.00  1.0000
   8   3  -6   24969    2300                                                       22708   -1.71    0.00  1.0000
  -8  -2  -6    1413    1390                                                        1780    1.07    0.00  1.0000
  -2   8  -6     536    1400                                                         770    1.07    0.00  1.0000
   2  -8  -6    1574    1360                                                        1960    1.07    0.00  1.0000
   8   2  -6     714    1650                                                         980    1.07    0.00  1.0000
   1  -8  -6     924    1310                                                         330    2.86    0.00  1.0000
   8   1  -6    4216    1630                                                        2780    2.85    0.00  1.0000
  -1   8  -6    2210    1450                                                        1210    2.86    0.00  1.0000
  -8  -1  -6     150    1350                                                        -790    2.86    0.00  1.0000
   0   8  -6    2518    1430                                                        2760    0.55    0.00  1.0000
   8   0  -6     590    1610                                                         710    0.55    0.00  1.0000
   0  -8  -6     876    1190                                                        1020    0.55    0.00  1.0000
  -8   0  -6    1378    1470                                                        1560    0.55    0.00  1.0000
   1   8  -6    1736    1350                                                        1370   -1.09    0.00  1.0000
  -8   1  -6      21    1530                                                        -100   -1.08    0.00  1.0000
  -1  -8  -6      22    1070                                                       -1250   -1.09    0.00  1.0000
   8  -1  -6    1632    1590                                                        1280   -1.08    0.00  1.0000
  -2  -8  -6    7377    1200                                                        7599   -0.30    0.00  1.0000
   2   8  -6    5390    1420                                                        5579   -0.30    0.00  1.0000
   8  -2  -6    5793    1800                                                        5989   -0.30    0.00  1.0000
  -8   2  -6    6401    1640                                                        6609   -0.30    0.00  1.0000
  -3  -8  -6     462    1030                                                        1260    3.28    0.00  1.0000
  -8   3  -6    1655    1560                                                        2990    3.27    0.00  1.0000
   3   8  -6     106    1350                                                         590    3.27    0.00  1.0000
   8  -3  -6     183    1720                                                         760    3.28    0.00  1.0000
  -4  -8  -6    6514    1060                                                        4790    2.69    0.00  1.0000
   8  -4  -6    6914    1830                                                        5139    2.68    0.00  1.0000
   4   8  -6    6080    1480                                                        4420    2.69    0.00  1.0000
  -8   4  -6    8146    1740                                                        6209    2.68    0.00  1.0000
   8  -5  -6    4039    1910                                                        5439    2.38    0.00  1.0000
  -8   5  -6    4426    1760                                                        5889    2.39    0.00  1.0000
  -5  -8  -6    1362    1040                                                        2220    2.39    0.00  1.0000
   5   8  -6    1425    1480                                                        2300    2.39    0.00  1.0000
   6   8  -6     910    1510                                                         960    0.19    0.00  1.0000
  -6  -8  -6    3147    1080                                                        3240    0.19    0.00  1.0000
  -8   6  -6     367    1620                                                         400    0.19    0.00  1.0000
   8  -6  -6      85    1940                                                         100    0.19    0.00  1.0000
   7   8  -6     840    1560                                                         840    0.00    0.00  1.0000
   8  -7  -6       0    1860                                                       -1120    0.00    0.00  1.0000
  -8   7  -6    1229    1650                                                        1230    0.00    0.00  1.0000
  -7  -8  -6       0    1030                                                        -200    0.00    0.00  1.0000
  -8   8  -6      77    1760                                                         240   -1.56    0.00  1.0000
   8   8  -6     804    2240                                                        1230   -1.57    0.00  1.0000
  -8  -8  -6     804    1120                                                        1230   -1.57    0.00  1.0000
   9   8  -6    1460    1630                                                         640   -3.02    0.00  1.0000
  -8   9  -6    2998    1840                                                        1750   -3.02    0.00  1.0000
  -9  -8  -6    6028    1220                                                        4190   -3.02    0.00  1.0000
  -9  -7  -6    4110    1310                                                        2990   -2.20    0.00  1.0000
  -7   9  -6    3375    1950                                                        2370   -2.20    0.00  1.0000
   9   7  -6    1314    1990                                                         720   -2.20    0.00  1.0000
   9   6  -6    4176    1800                                                        3190    1.90    0.00  1.0000
  -9  -6  -6    4060    1330                                                        3090    1.90    0.00  1.0000
  -6   9  -6    4047    1560                                                        3080    1.90    0.00  1.0000
  -5   9  -6     416    1560                                                        1100    2.98    0.00  1.0000
   5  -9  -6     163    1810                                                       -2090    2.98    0.00  1.0000
  -9  -5  -6      18    1290                                                         290    2.98    0.00  1.0000
   9   5  -6    2640    1720                                                        4110    2.98    0.00  1.0000
   9   4  -6    3495    1680                                                        2870    1.30    0.00  1.0000
   4  -9  -6    3737    1850                                                        3090    1.30    0.00  1.0000
  -4   9  -6    3285    1560                                                        2680    1.30    0.00  1.0000
  -9  -4  -6    5298    1430                                                        4520    1.30    0.00  1.0000
   3  -9  -6      11    1580                                                         -70   -0.79    0.00  1.0000
   9   3  -6    1348    1640                                                        1110   -0.79    0.00  1.0000
  -9  -3  -6    1631    1420                                                        1370   -0.79    0.00  1.0000
  -3   9  -6    2786    1390                                                        2440   -0.79    0.00  1.0000
   2  -9  -6    2781    1470                                                        3120    0.73    0.00  1.0000
   9   2  -6    1720    1690                                                        1990    0.73    0.00  1.0000
  -9  -2  -6    4822    1540                                                        5269    0.74    0.00  1.0000
  -2   9  -6    2281    1400                                                        2590    0.73    0.00  1.0000
  -1   9  -6   14356    1740                                                       12249    2.14    0.00  1.0000
  -9  -1  -6   15463    1770                                                       13269    2.14    0.00  1.0000
   9   1  -6   11414    1890                                                        9539    2.14    0.00  1.0000
   1  -9  -6   10237    1510                                                        8469    2.14    0.00  1.0000
   9   0  -6   10734    1930                                                       10809    0.08    0.00  1.0000
   0  -9  -6    8332    1480                                                        8399    0.09    0.00  1.0000
   0   9  -6   11649    1660                                                       11729    0.09    0.00  1.0000
  -9   0  -6   10898    1750                                                       10969    0.08    0.00  1.0000
   9  -1  -6   16761    2130                                                       16908    0.13    0.00  1.0000
  -1  -9  -6   14493    1850                                                       14629    0.13    0.00  1.0000
   1   9  -6   12245    1710                                                       12369    0.13    0.00  1.0000
  -9   1  -6   12544    1860                                                       12669    0.13    0.00  1.0000
   9  -2  -6   11468    1970                                                       10789    0.75    0.00  1.0000
   2   9  -6    7678    1510                                                        7119    0.76    0.00  1.0000
  -9   2  -6    8473    1730                                                        7889    0.75    0.00  1.0000
  -9   3  -6    3927    1700                                                        5669    2.95    0.00  1.0000
   3   9  -6    2927    1570                                                        4450    2.95    0.00  1.0000
   9  -3  -6    4929    1970                                                        6859    2.95    0.00  1.0000
   4   9  -6   24405    2390                                                       24278   -0.10    0.00  1.0000
  -9   4  -6   20799    2340                                                       20688   -0.09    0.00  1.0000
   9  -4  -6   23430    2600                                                       23308   -0.09    0.00  1.0000
  -9   5  -6   28685    2840                                                       28787   -0.07    0.00  1.0000
   9  -5  -6   27397    2910                                                       27497   -0.07    0.00  1.0000
   5   9  -6   29859    2670                                                       29967   -0.07    0.00  1.0000
  -9   6  -6       0    1650                                                         -30    0.06    0.00  1.0000
   6   9  -6    1688    1600                                                        1710    0.06    0.00  1.0000
  -6  -9  -6       0    1040                                                       -1320    0.06    0.00  1.0000
   9  -6  -6    1339    1990                                                        1360    0.07    0.00  1.0000
   7   9  -6   18215    2880                                                       19568    1.15    0.00  1.0000
  -7  -9  -6   13078    1500                                                       14229    1.15    0.00  1.0000
  -9   7  -6   14352    2030                                                       15548    1.14    0.00  1.0000
  -8  -9  -6    2117    1060                                                        1950    0.43    0.00  1.0000
   8   9  -6       3    1490                                                       -2180    0.44    0.00  1.0000
  -9   8  -6     748    2460                                                         650    0.43    0.00  1.0000
  -9   9  -6      22    1680                                                         190   -2.14    0.00  1.0000
   9   9  -6      84    1620                                                        -620   -2.14    0.00  1.0000
  -9  -9  -6    2225    1150                                                        3170   -2.14    0.00  1.0000
 -10  -8  -6    7230    1380                                                        6739   -0.69    0.00  1.0000
  10   8  -6    5672    1740                                                        5239   -0.69    0.00  1.0000
  -8  10  -6    6224    1750                                                        5769   -0.69    0.00  1.0000
 -10  -7  -6    1447    1330                                                        2140   -1.92    0.00  1.0000
  10   7  -6     751    1760                                                        1270   -1.92    0.00  1.0000
  -7  10  -6      67    1540                                                        -490   -1.92    0.00  1.0000
  -6  10  -6    6477    2850                                                        6039    0.65    0.00  1.0000
 -10  -6  -6    6160    1470                                                        5729    0.65    0.00  1.0000
  10   5  -6     702    1700                                                        1010    1.23    0.00  1.0000
 -10  -5  -6     307    1410                                                         520    1.24    0.00  1.0000
  -5  10  -6      28    1670                                                        -460    1.23    0.00  1.0000
  10   4  -6    4987    1770                                                        5659    1.08    0.00  1.0000
 -10  -4  -6    2115    1490                                                        2560    1.08    0.00  1.0000
  -4  10  -6    4156    1470                                                        4770    1.07    0.00  1.0000
 -10  -3  -6   17042    1930                                                       17008    0.03    0.00  1.0000
  -3  10  -6   15460    1970                                                       15428    0.03    0.00  1.0000
  10   3  -6   15975    2140                                                       15938    0.03    0.00  1.0000
   3 -10  -6   13610    2120                                                       13579    0.03    0.00  1.0000
  -2  10  -6       1    1290                                                       -1820    0.20    0.00  1.0000
 -10  -2  -6    2766    1530                                                        2680    0.19    0.00  1.0000
  10   2  -6       1    1690                                                       -3150    0.20    0.00  1.0000
   2 -10  -6       1    1500                                                       -1630    0.20    0.00  1.0000
  10   1  -6       6    1790                                                       -2840    0.56    0.00  1.0000
 -10  -1  -6       6    1500                                                        -620    0.56    0.00  1.0000
   1 -10  -6       6    1750                                                       -3760    0.56    0.00  1.0000
  -1  10  -6       6    1500                                                        -420    0.56    0.00  1.0000
 -10   0  -6    3162    1580                                                        3840   -1.34    0.00  1.0000
   0  10  -6      33    1460                                                        -110   -1.34    0.00  1.0000
   0 -10  -6    2218    1430                                                        2790   -1.34    0.00  1.0000
  10   0  -6    2385    1860                                                        2980   -1.34    0.00  1.0000
 -10   1  -6    8765    1690                                                        8279    0.61    0.00  1.0000
  10  -1  -6    4888    1950                                                        4530    0.61    0.00  1.0000
   1  10  -6    4398    1450                                                        4060    0.61    0.00  1.0000
  -1 -10  -6    5167    1310                                                        4800    0.61    0.00  1.0000
   2  10  -6      18    1360                                                       -1410    1.00    0.00  1.0000
 -10   2  -6      18    1580                                                       -2440    1.00    0.00  1.0000
  -2 -10  -6      18    1110                                                         -60    1.00    0.00  1.0000
  10  -2  -6      18    1940                                                       -1250    1.00    0.00  1.0000
 -10   3  -6    2140    1690                                                        3040    2.08    0.00  1.0000
   3  10  -6     671    1520                                                        1210    2.08    0.00  1.0000
  -3 -10  -6      79    1050                                                        -790    2.08    0.00  1.0000
  10  -3  -6    1316    2020                                                        2040    2.08    0.00  1.0000
  -4 -10  -6    1754    1040                                                        2360   -1.57    0.00  1.0000
  10  -4  -6      45    2080                                                       -1490   -1.56    0.00  1.0000
 -10   4  -6    1268    1760                                                        1790   -1.57    0.00  1.0000
   4  10  -6     574    1540                                                         940   -1.57    0.00  1.0000
  -5 -10  -6    1432    1020                                                        1740   -0.91    0.00  1.0000
 -10   5  -6      15    1690                                                       -1310   -0.91    0.00  1.0000
  10  -5  -6      15    2000                                                        -550   -0.91    0.00  1.0000
   5  10  -6     622    1660                                                         830   -0.91    0.00  1.0000
  -6 -10  -6     943     950                                                         710    0.95    0.00  1.0000
 -10   6  -6    1509    1690                                                        1210    0.95    0.00  1.0000
   6  10  -6      17    2440                                                         -40    0.95    0.00  1.0000
   7  10  -6     797    1450                                                         410    1.86    0.00  1.0000
 -10   7  -6      64    3060                                                        -360    1.87    0.00  1.0000
  -7 -10  -6    1342    1070                                                         820    1.87    0.00  1.0000
   8  10  -6    5355    1680                                                        3980    2.36    0.00  1.0000
 -10   8  -6    6141    1900                                                        4660    2.36    0.00  1.0000
  -6  11  -6     168    1510                                                       -1700   -3.03    0.00  1.0000
 -11  -6  -6     168    1420                                                        -460   -3.03    0.00  1.0000
  11   6  -6     167    1750                                                        -150   -3.02    0.00  1.0000
  11   5  -6    4896    1920                                                        3030   -3.49    0.00  1.0000
 -11  -5  -6    3613    1450                                                        2040   -3.49    0.00  1.0000
  -5  11  -6     223    1460                                                        -830   -3.49    0.00  1.0000
  11   4  -6    2125    2460                                                        1300   -2.35    0.00  1.0000
 -11  -4  -6    1346    1460                                                         710   -2.35    0.00  1.0000
  -4  11  -6    1149    2190                                                         570   -2.34    0.00  1.0000
  11   3  -6    2733    1910                                                        3010   -0.60    0.00  1.0000
  -3  11  -6       7    1870                                                       -1230   -0.60    0.00  1.0000
 -11  -3  -6     201    1480                                                         280   -0.60    0.00  1.0000
  -2  11  -6    2233    1610                                                        2370    0.33    0.00  1.0000
 -11  -2  -6    3469    1580                                                        3640    0.33    0.00  1.0000
  11   2  -6     345    1870                                                         400    0.33    0.00  1.0000
  11   1  -6   20458    2480                                                       22558    1.67    0.00  1.0000
 -11  -1  -6   16618    2140                                                       18518    1.68    0.00  1.0000
  -1  11  -6   19959    2100                                                       22028    1.67    0.00  1.0000
   1 -11  -6   13847    2190                                                       15578    1.67    0.00  1.0000
   0  11  -6   17765    2010                                                       17568    0.17    0.00  1.0000
   0 -11  -6   14799    1990                                                       14619    0.17    0.00  1.0000
  11   0  -6   19368    2470                                                       19158    0.18    0.00  1.0000
 -11   0  -6   19295    2150                                                       19088    0.17    0.00  1.0000
  11  -1  -6    1590    2030                                                        2270    1.82    0.00  1.0000
   1  11  -6    1893    1470                                                        2630    1.82    0.00  1.0000
 -11   1  -6    2539    1700                                                        3380    1.81    0.00  1.0000
  -1 -11  -6    1699    1430                                                        2400    1.82    0.00  1.0000
  -2 -11  -6    3404    1300                                                        3280   -0.25    0.00  1.0000
   2  11  -6    5832    1520                                                        5669   -0.25    0.00  1.0000
 -11   2  -6    3314    1750                                                        3190   -0.25    0.00  1.0000
  11  -2  -6    5994    2160                                                        5829   -0.25    0.00  1.0000
 -11   3  -6   10171    2040                                                       10849   -0.77    0.00  1.0000
  -3 -11  -6   10476    1500                                                       11159   -0.77    0.00  1.0000
   3  11  -6   14001    2380                                                       14789   -0.77    0.00  1.0000
  11  -3  -6   12080    2380                                                       12819   -0.77    0.00  1.0000
   4  11  -6     296    2720                                                         910   -3.03    0.00  1.0000
 -11   4  -6    1046    1840                                                        2050   -3.02    0.00  1.0000
  11  -4  -6     384    2050                                                        1060   -3.03    0.00  1.0000
  -4 -11  -6       4    1220                                                         220   -3.03    0.00  1.0000
   5  11  -6    7738    1750                                                        7059   -0.92    0.00  1.0000
 -11   5  -6    7881    1920                                                        7199   -0.92    0.00  1.0000
   6  11  -6     738    1470                                                        1490    2.67    0.00  1.0000
 -11   6  -6     140    2130                                                         540    2.67    0.00  1.0000
  12   4  -6     529    1980                                                        1830   -4.62    0.00  1.0000
 -12  -4  -6     583    1520                                                        1930   -4.62    0.00  1.0000
  -4  12  -6     414    1520                                                        1610   -4.62    0.00  1.0000
  12   3  -6     104    2140                                                           0   -2.39    0.00  1.0000
 -12  -3  -6    1318    1570                                                         680   -2.39    0.00  1.0000
  -3  12  -6    1525    1380                                                         830   -2.39    0.00  1.0000
  -2  12  -6     701    1570                                                        1100   -1.56    0.00  1.0000
 -12  -2  -6      61    1650                                                         210   -1.57    0.00  1.0000
  -1  12  -6    4359    1480                                                        3740    1.14    0.00  1.0000
  12   1  -6    1353    2010                                                        1020    1.13    0.00  1.0000
 -12  -1  -6     752    1700                                                         510    1.13    0.00  1.0000
  12   0  -6    6123    2300                                                        6469    0.51    0.00  1.0000
   0  12  -6   10352    1710                                                       10799    0.51    0.00  1.0000
 -12   0  -6    7369    1880                                                        7749    0.51    0.00  1.0000
 -12   1  -6    1127    1700                                                         510    2.57    0.00  1.0000
   1  12  -6     121    1590                                                        -220    2.57    0.00  1.0000
  12  -1  -6     121    2160                                                       -1090    2.57    0.00  1.0000
   2  12  -6    1735    1380                                                        2010    0.74    0.00  1.0000
 -12   2  -6    1566    1800                                                        1830    0.75    0.00  1.0000
  12  -2  -6    3672    2270                                                        4070    0.75    0.00  1.0000
   3  12  -6     671    1520                                                        1120    1.77    0.00  1.0000
 -12   3  -6       1    1820                                                          70    1.77    0.00  1.0000
  12  -3  -6     725    2140                                                        1190    1.77    0.00  1.0000
   4  12  -6     103    1560                                                        -260    2.37    0.00  1.0000
 -12   4  -6     103    1780                                                        -130    2.37    0.00  1.0000
  -1   0  -7     160    1310                                                       -1140   -2.95    0.00  1.0000
   0   1  -7     702    1350                                                        1530    2.95    0.00  1.0000
   1   0  -7     349    1370                                                         980   -2.95    0.00  1.0000
   0  -1  -7     160    1320                                                        -600    2.95    0.00  1.0000
  -1   1  -7    7444    1520                                                        8259   -1.08    0.00  1.0000
   1  -1  -7    2425    1460                                                        2900   -1.08    0.00  1.0000
   1   1  -7    5060    1480                                                        5739    1.08    0.00  1.0000
  -1  -1  -7    1483    1360                                                        1860    1.08    0.00  1.0000
   1  -2  -7    1729    1380                                                        1260   -1.42    0.00  1.0000
  -1   2  -7    2248    1440                                                        1710   -1.42    0.00  1.0000
  -2  -1  -7    2193    1380                                                        1660    1.42    0.00  1.0000
   2   1  -7    4178    1540                                                        3430    1.42    0.00  1.0000
  -2   0  -7       6    1360                                                       -2150   -0.59    0.00  1.0000
   0  -2  -7       6    1300                                                        -190    0.59    0.00  1.0000
   2   0  -7     575    1400                                                         460   -0.59    0.00  1.0000
   0   2  -7     507    1300                                                         400    0.59    0.00  1.0000
   1   2  -7       0    1350                                                        -260   -0.13    0.00  1.0000
  -2   1  -7      52    1430                                                          60    0.12    0.00  1.0000
  -1  -2  -7    1113    1280                                                        1150   -0.13    0.00  1.0000
   2  -1  -7     341    1410                                                         360    0.12    0.00  1.0000
  -2  -2  -7       1    1240                                                        -750   -0.25    0.00  1.0000
   2  -2  -7    1482    1390                                                        1400    0.25    0.00  1.0000
  -2   2  -7       1    1450                                                       -1100    0.25    0.00  1.0000
   2   2  -7    2282    1510                                                        2180   -0.25    0.00  1.0000
   2  -3  -7    4348    1430                                                        5029    1.16    0.00  1.0000
  -2   3  -7      12    1390                                                          70    1.16    0.00  1.0000
   3   2  -7      25    1490                                                        -210   -1.16    0.00  1.0000
  -3  -2  -7    3829    1360                                                        4470   -1.16    0.00  1.0000
   3   1  -7    2012    1510                                                        1990    0.06    0.00  1.0000
  -3  -1  -7       0    1360                                                         -10    0.05    0.00  1.0000
  -1   3  -7       0    1450                                                       -2040   -0.06    0.00  1.0000
   1  -3  -7     957    1340                                                         940   -0.06    0.00  1.0000
   0   3  -7      12    1380                                                         -30    0.80    0.00  1.0000
  -3   0  -7     369    1380                                                         250   -0.80    0.00  1.0000
   0  -3  -7    3990    1370                                                        3570    0.80    0.00  1.0000
   3   0  -7    1546    1470                                                        1290   -0.79    0.00  1.0000
  -1  -3  -7      76    1230                                                       -1960    2.03    0.00  1.0000
   3  -1  -7      76    1400                                                       -1480   -2.03    0.00  1.0000
  -3   1  -7     726    1370                                                        1270   -2.03    0.00  1.0000
   1   3  -7      76    1360                                                       -2000    2.03    0.00  1.0000
  -2  -3  -7      63    1210                                                       -2330    1.86    0.00  1.0000
   2   3  -7      64    1490                                                        -150    1.86    0.00  1.0000
  -3   2  -7    1246    1370                                                        1870   -1.86    0.00  1.0000
   3  -2  -7      63    1400                                                        -510   -1.86    0.00  1.0000
   3  -3  -7    4013    1470                                                        3950    0.12    0.00  1.0000
  -3  -3  -7    1214    1320                                                        1180   -0.12    0.00  1.0000
  -3   3  -7    2662    1480                                                        2610    0.12    0.00  1.0000
   3   3  -7    2147    1600                                                        2100   -0.12    0.00  1.0000
  -4  -3  -7    2594    1350                                                        2240   -0.84    0.00  1.0000
  -3   4  -7    1218    1470                                                         980    0.84    0.00  1.0000
   4   3  -7    2378    1560                                                        2040   -0.84    0.00  1.0000
   3  -4  -7     327    1420                                                         210    0.84    0.00  1.0000
  -2   4  -7    1205    1470                                                        1430   -0.73    0.00  1.0000
   2  -4  -7    1287    1390                                                        1520   -0.73    0.00  1.0000
  -4  -2  -7     210    1300                                                         310    0.73    0.00  1.0000
   4   2  -7    1934    1560                                                        2220    0.73    0.00  1.0000
   1  -4  -7    2794    1360                                                        1780   -2.49    0.00  1.0000
  -4  -1  -7     114    1320                                                        -160    2.49    0.00  1.0000
   4   1  -7     114    1460                                                        -890    2.50    0.00  1.0000
  -1   4  -7     289    1430                                                          40   -2.50    0.00  1.0000
   0  -4  -7     127    1320                                                         590   -3.04    0.00  1.0000
   4   0  -7     170    1480                                                       -1070    3.05    0.00  1.0000
   0   4  -7      60    1520                                                         430   -3.04    0.00  1.0000
  -4   0  -7     700    1350                                                        1560    3.05    0.00  1.0000
  -4   1  -7     948    1350                                                        1180    0.83    0.00  1.0000
   4  -1  -7    1339    1460                                                        1610    0.83    0.00  1.0000
   1   4  -7    1990    1450                                                        2320   -0.83    0.00  1.0000
  -1  -4  -7      76    1280                                                         150   -0.83    0.00  1.0000
  -4   2  -7    3321    1550                                                        3260    0.12    0.00  1.0000
  -2  -4  -7    3284    1250                                                        3220   -0.13    0.00  1.0000
   2   4  -7    3393    1460                                                        3330   -0.13    0.00  1.0000
   4  -2  -7    5609    1590                                                        5529    0.13    0.00  1.0000
   4  -3  -7    9847    1780                                                       10459    0.71    0.00  1.0000
  -3  -4  -7   10209    1540                                                       10829   -0.71    0.00  1.0000
  -4   3  -7   11716    1790                                                       12379    0.71    0.00  1.0000
   3   4  -7   12697    1870                                                       13389   -0.71    0.00  1.0000
   4  -4  -7    4557    1670                                                        4840    0.48    0.00  1.0000
  -4  -4  -7    2192    1340                                                        2390   -0.48    0.00  1.0000
  -4   4  -7    1887    1530                                                        2070    0.48    0.00  1.0000
   4   4  -7    3664    2210                                                        3920   -0.49    0.00  1.0000
   5   4  -7      10    1710                                                       -2770    0.73    0.00  1.0000
   4  -5  -7    1740    1590                                                        2010   -0.73    0.00  1.0000
  -5  -4  -7     106    1290                                                         180    0.73    0.00  1.0000
  -5  -3  -7    4912    1360                                                        4130   -1.36    0.00  1.0000
   3  -5  -7    3105    1550                                                        2490    1.36    0.00  1.0000
   5   3  -7     589    1530                                                         340   -1.36    0.00  1.0000
  -3   5  -7    3472    1730                                                        2820    1.36    0.00  1.0000
   2  -5  -7       3    1380                                                        -700   -0.38    0.00  1.0000
  -2   5  -7     542    1420                                                         470   -0.37    0.00  1.0000
   5   2  -7       3    1510                                                        -100    0.38    0.00  1.0000
  -5  -2  -7    1042    1320                                                         940    0.38    0.00  1.0000
   1  -5  -7    7024    1470                                                        6609   -0.59    0.00  1.0000
  -5  -1  -7    5959    1500                                                        5579    0.59    0.00  1.0000
  -1   5  -7    4928    1660                                                        4580   -0.59    0.00  1.0000
   5   1  -7    5339    1610                                                        4980    0.58    0.00  1.0000
  -5   0  -7   11848    1700                                                       12569    0.76    0.00  1.0000
   5   0  -7   10431    1820                                                       11109    0.76    0.00  1.0000
   0  -5  -7   10902    1630                                                       11599   -0.77    0.00  1.0000
   0   5  -7    9287    1690                                                        9929   -0.77    0.00  1.0000
   1   5  -7    5078    1700                                                        5809    1.16    0.00  1.0000
  -5   1  -7    5526    1570                                                        6289   -1.16    0.00  1.0000
   5  -1  -7    5294    1650                                                        6039   -1.16    0.00  1.0000
  -1  -5  -7    4964    1400                                                        5689    1.16    0.00  1.0000
   5  -2  -7    2472    1630                                                        2720   -0.57    0.00  1.0000
   2   5  -7     632    1810                                                         760    0.57    0.00  1.0000
  -2  -5  -7    2529    1280                                                        2780    0.57    0.00  1.0000
  -5   2  -7      57    1370                                                         100   -0.57    0.00  1.0000
  -5   3  -7    3322    1500                                                        3460    0.28    0.00  1.0000
  -3  -5  -7    2014    1230                                                        2120   -0.27    0.00  1.0000
   5  -3  -7     582    1640                                                         640    0.27    0.00  1.0000
  -5   4  -7       0    1420                                                        -560    0.07    0.00  1.0000
   4   5  -7       0    1610                                                        -430   -0.07    0.00  1.0000
  -4  -5  -7      96    1200                                                          90   -0.08    0.00  1.0000
   5  -4  -7       0    1590                                                       -1250    0.07    0.00  1.0000
   2  -6  -7       0    1430                                                        -780    0.16    0.00  1.0000
  -6  -2  -7       1    1280                                                       -2240   -0.17    0.00  1.0000
  -2   6  -7    1063    1670                                                        1110    0.17    0.00  1.0000
   6   2  -7    1239    1670                                                        1290   -0.17    0.00  1.0000
  -6  -1  -7    1635    1380                                                        1340   -0.90    0.00  1.0000
   6   1  -7     906    1590                                                         690   -0.90    0.00  1.0000
  -1   6  -7    1889    1990                                                        1570    0.90    0.00  1.0000
   1  -6  -7      69    1330                                                          20    0.90    0.00  1.0000
   0   6  -7     350    1880                                                         290   -0.39    0.00  1.0000
   6   0  -7       3    1610                                                        -900    0.39    0.00  1.0000
  -6   0  -7    2100    1410                                                        1950    0.39    0.00  1.0000
   0  -6  -7    2287    1340                                                        2130   -0.39    0.00  1.0000
   1   6  -7    5531    1560                                                        5809   -0.43    0.00  1.0000
  -1  -6  -7    7717    1450                                                        8049   -0.44    0.00  1.0000
   6  -1  -7    7697    1850                                                        8029    0.44    0.00  1.0000
  -6   1  -7     848    1470                                                         960    0.44    0.00  1.0000
  -6   2  -7    2219    1550                                                        1220    2.85    0.00  1.0000
   2   6  -7    3981    1530                                                        2590   -2.85    0.00  1.0000
  -2  -6  -7    2957    1310                                                        1780   -2.85    0.00  1.0000
   6  -2  -7    5796    1710                                                        4090    2.85    0.00  1.0000
;
_shelx_hkl_checksum              61718
_shelx_SHELXL_version_number     2014/7
_olex2_submission_special_instructions 'No special instructions were received'
_exptl_crystal_recrystallization_method 'Re-crystallisation from solvent'
_solvent_exptl_crystal_recrystallization_method 'NMP Acetone'
